*SPEF "ieee 1481-1999"
*DESIGN "kogge"
*DATE "11:11:11 Fri 11 11, 1111"
*VENDOR "OpenRCX"
*PROGRAM "Parallel Extraction"
*VERSION "1.0"
*DESIGN_FLOW "NAME_SCOPE LOCAL" "PIN_CAP NONE"
*DIVIDER /
*DELIMITER :
*BUS_DELIMITER []
*T_UNIT 1 NS
*C_UNIT 1 PF
*R_UNIT 1 OHM
*L_UNIT 1 HENRY

*NAME_MAP
*1 A[0]
*2 A[10]
*3 A[11]
*4 A[12]
*5 A[13]
*6 A[14]
*7 A[15]
*8 A[1]
*9 A[2]
*10 A[3]
*11 A[4]
*12 A[5]
*13 A[6]
*14 A[7]
*15 A[8]
*16 A[9]
*17 B[0]
*18 B[10]
*19 B[11]
*20 B[12]
*21 B[13]
*22 B[14]
*23 B[15]
*24 B[1]
*25 B[2]
*26 B[3]
*27 B[4]
*28 B[5]
*29 B[6]
*30 B[7]
*31 B[8]
*32 B[9]
*33 SUM[0]
*34 SUM[10]
*35 SUM[11]
*36 SUM[12]
*37 SUM[13]
*38 SUM[14]
*39 SUM[15]
*40 SUM[1]
*41 SUM[2]
*42 SUM[3]
*43 SUM[4]
*44 SUM[5]
*45 SUM[6]
*46 SUM[7]
*47 SUM[8]
*48 SUM[9]
*51 _000_
*52 _001_
*53 _002_
*54 _003_
*55 _004_
*56 _005_
*57 _006_
*58 _007_
*59 _008_
*60 _009_
*61 _010_
*62 _011_
*63 _012_
*64 _013_
*65 _014_
*66 _015_
*67 _016_
*68 _017_
*69 _018_
*70 _019_
*71 _020_
*72 _021_
*73 _022_
*74 _023_
*75 _024_
*76 _025_
*77 _026_
*78 _027_
*79 _028_
*80 _029_
*81 _030_
*82 _031_
*83 _032_
*84 _033_
*85 _034_
*86 _035_
*87 _036_
*88 _037_
*89 _038_
*90 _039_
*91 _040_
*92 _041_
*93 _042_
*94 _043_
*95 _044_
*96 _045_
*97 _046_
*98 _047_
*99 _048_
*100 _049_
*101 _050_
*102 _051_
*103 _052_
*104 _053_
*105 _054_
*106 _055_
*107 _056_
*108 _057_
*109 _058_
*110 _059_
*111 _060_
*112 _061_
*113 _062_
*114 _063_
*115 _064_
*116 _065_
*117 _066_
*118 _067_
*119 _068_
*120 _069_
*121 _070_
*122 _071_
*123 _072_
*124 _073_
*125 _074_
*126 _075_
*127 _076_
*128 _077_
*129 _078_
*130 _079_
*131 _080_
*132 _081_
*133 _082_
*134 _083_
*135 _084_
*136 _085_
*137 _086_
*138 _087_
*139 _088_
*140 _089_
*141 _090_
*142 _091_
*143 _092_
*144 _093_
*145 net1
*146 net10
*147 net11
*148 net12
*149 net13
*150 net14
*151 net15
*152 net16
*153 net17
*154 net18
*155 net19
*156 net2
*157 net20
*158 net21
*159 net22
*160 net23
*161 net24
*162 net25
*163 net26
*164 net27
*165 net28
*166 net29
*167 net3
*168 net30
*169 net31
*170 net32
*171 net33
*172 net34
*173 net35
*174 net36
*175 net37
*176 net38
*177 net39
*178 net4
*179 net40
*180 net41
*181 net42
*182 net43
*183 net44
*184 net45
*185 net46
*186 net47
*187 net48
*188 net5
*189 net6
*190 net7
*191 net8
*192 net9
*193 FILLER_0_0_107
*194 FILLER_0_0_111
*195 FILLER_0_0_113
*196 FILLER_0_0_119
*197 FILLER_0_0_25
*198 FILLER_0_0_35
*199 FILLER_0_0_43
*200 FILLER_0_0_49
*201 FILLER_0_0_55
*202 FILLER_0_0_63
*203 FILLER_0_0_7
*204 FILLER_0_0_71
*205 FILLER_0_0_79
*206 FILLER_0_0_83
*207 FILLER_0_0_85
*208 FILLER_0_0_91
*209 FILLER_0_0_99
*210 FILLER_0_10_102
*211 FILLER_0_10_120
*212 FILLER_0_10_126
*213 FILLER_0_10_18
*214 FILLER_0_10_26
*215 FILLER_0_10_29
*216 FILLER_0_10_41
*217 FILLER_0_10_54
*218 FILLER_0_10_6
*219 FILLER_0_10_64
*220 FILLER_0_10_72
*221 FILLER_0_10_82
*222 FILLER_0_10_90
*223 FILLER_0_11_113
*224 FILLER_0_11_123
*225 FILLER_0_11_15
*226 FILLER_0_11_27
*227 FILLER_0_11_3
*228 FILLER_0_11_39
*229 FILLER_0_11_51
*230 FILLER_0_11_55
*231 FILLER_0_11_57
*232 FILLER_0_11_63
*233 FILLER_0_11_67
*234 FILLER_0_11_77
*235 FILLER_0_11_89
*236 FILLER_0_12_105
*237 FILLER_0_12_110
*238 FILLER_0_12_122
*239 FILLER_0_12_126
*240 FILLER_0_12_19
*241 FILLER_0_12_27
*242 FILLER_0_12_29
*243 FILLER_0_12_41
*244 FILLER_0_12_45
*245 FILLER_0_12_58
*246 FILLER_0_12_64
*247 FILLER_0_12_69
*248 FILLER_0_12_7
*249 FILLER_0_12_81
*250 FILLER_0_12_85
*251 FILLER_0_12_97
*252 FILLER_0_13_101
*253 FILLER_0_13_109
*254 FILLER_0_13_11
*255 FILLER_0_13_113
*256 FILLER_0_13_125
*257 FILLER_0_13_20
*258 FILLER_0_13_28
*259 FILLER_0_13_3
*260 FILLER_0_13_36
*261 FILLER_0_13_42
*262 FILLER_0_13_65
*263 FILLER_0_13_77
*264 FILLER_0_13_89
*265 FILLER_0_14_109
*266 FILLER_0_14_118
*267 FILLER_0_14_130
*268 FILLER_0_14_20
*269 FILLER_0_14_29
*270 FILLER_0_14_3
*271 FILLER_0_14_41
*272 FILLER_0_14_53
*273 FILLER_0_14_65
*274 FILLER_0_14_77
*275 FILLER_0_14_83
*276 FILLER_0_14_97
*277 FILLER_0_15_107
*278 FILLER_0_15_111
*279 FILLER_0_15_117
*280 FILLER_0_15_125
*281 FILLER_0_15_18
*282 FILLER_0_15_30
*283 FILLER_0_15_42
*284 FILLER_0_15_54
*285 FILLER_0_15_57
*286 FILLER_0_15_69
*287 FILLER_0_15_7
*288 FILLER_0_15_78
*289 FILLER_0_15_95
*290 FILLER_0_16_100
*291 FILLER_0_16_112
*292 FILLER_0_16_126
*293 FILLER_0_16_130
*294 FILLER_0_16_18
*295 FILLER_0_16_26
*296 FILLER_0_16_29
*297 FILLER_0_16_3
*298 FILLER_0_16_42
*299 FILLER_0_16_54
*300 FILLER_0_16_66
*301 FILLER_0_17_105
*302 FILLER_0_17_111
*303 FILLER_0_17_113
*304 FILLER_0_17_122
*305 FILLER_0_17_126
*306 FILLER_0_17_20
*307 FILLER_0_17_32
*308 FILLER_0_17_36
*309 FILLER_0_17_40
*310 FILLER_0_17_51
*311 FILLER_0_17_55
*312 FILLER_0_17_57
*313 FILLER_0_17_69
*314 FILLER_0_17_7
*315 FILLER_0_17_81
*316 FILLER_0_17_93
*317 FILLER_0_18_102
*318 FILLER_0_18_114
*319 FILLER_0_18_126
*320 FILLER_0_18_130
*321 FILLER_0_18_3
*322 FILLER_0_18_37
*323 FILLER_0_18_46
*324 FILLER_0_18_55
*325 FILLER_0_18_63
*326 FILLER_0_18_79
*327 FILLER_0_18_83
*328 FILLER_0_18_90
*329 FILLER_0_19_105
*330 FILLER_0_19_111
*331 FILLER_0_19_126
*332 FILLER_0_19_15
*333 FILLER_0_19_27
*334 FILLER_0_19_3
*335 FILLER_0_19_52
*336 FILLER_0_19_57
*337 FILLER_0_19_69
*338 FILLER_0_19_81
*339 FILLER_0_19_93
*340 FILLER_0_1_101
*341 FILLER_0_1_109
*342 FILLER_0_1_113
*343 FILLER_0_1_119
*344 FILLER_0_1_123
*345 FILLER_0_1_19
*346 FILLER_0_1_25
*347 FILLER_0_1_39
*348 FILLER_0_1_51
*349 FILLER_0_1_55
*350 FILLER_0_1_57
*351 FILLER_0_1_61
*352 FILLER_0_1_69
*353 FILLER_0_1_7
*354 FILLER_0_1_81
*355 FILLER_0_1_89
*356 FILLER_0_1_93
*357 FILLER_0_20_104
*358 FILLER_0_20_116
*359 FILLER_0_20_12
*360 FILLER_0_20_122
*361 FILLER_0_20_24
*362 FILLER_0_20_29
*363 FILLER_0_20_41
*364 FILLER_0_20_54
*365 FILLER_0_20_66
*366 FILLER_0_20_74
*367 FILLER_0_20_92
*368 FILLER_0_21_105
*369 FILLER_0_21_111
*370 FILLER_0_21_113
*371 FILLER_0_21_129
*372 FILLER_0_21_14
*373 FILLER_0_21_23
*374 FILLER_0_21_27
*375 FILLER_0_21_29
*376 FILLER_0_21_37
*377 FILLER_0_21_55
*378 FILLER_0_21_57
*379 FILLER_0_21_62
*380 FILLER_0_21_70
*381 FILLER_0_21_79
*382 FILLER_0_21_83
*383 FILLER_0_21_85
*384 FILLER_0_21_91
*385 FILLER_0_21_99
*386 FILLER_0_2_108
*387 FILLER_0_2_11
*388 FILLER_0_2_124
*389 FILLER_0_2_23
*390 FILLER_0_2_27
*391 FILLER_0_2_29
*392 FILLER_0_2_39
*393 FILLER_0_2_46
*394 FILLER_0_2_54
*395 FILLER_0_2_66
*396 FILLER_0_2_78
*397 FILLER_0_2_85
*398 FILLER_0_3_109
*399 FILLER_0_3_113
*400 FILLER_0_3_125
*401 FILLER_0_3_15
*402 FILLER_0_3_27
*403 FILLER_0_3_3
*404 FILLER_0_3_39
*405 FILLER_0_3_75
*406 FILLER_0_3_87
*407 FILLER_0_3_97
*408 FILLER_0_4_109
*409 FILLER_0_4_122
*410 FILLER_0_4_130
*411 FILLER_0_4_18
*412 FILLER_0_4_27
*413 FILLER_0_4_29
*414 FILLER_0_4_3
*415 FILLER_0_4_33
*416 FILLER_0_4_41
*417 FILLER_0_4_53
*418 FILLER_0_4_65
*419 FILLER_0_4_77
*420 FILLER_0_4_83
*421 FILLER_0_4_85
*422 FILLER_0_4_97
*423 FILLER_0_5_111
*424 FILLER_0_5_120
*425 FILLER_0_5_126
*426 FILLER_0_5_18
*427 FILLER_0_5_39
*428 FILLER_0_5_51
*429 FILLER_0_5_55
*430 FILLER_0_5_57
*431 FILLER_0_5_6
*432 FILLER_0_5_74
*433 FILLER_0_5_80
*434 FILLER_0_5_99
*435 FILLER_0_6_105
*436 FILLER_0_6_124
*437 FILLER_0_6_130
*438 FILLER_0_6_22
*439 FILLER_0_6_3
*440 FILLER_0_6_36
*441 FILLER_0_6_47
*442 FILLER_0_6_59
*443 FILLER_0_6_67
*444 FILLER_0_6_74
*445 FILLER_0_6_82
*446 FILLER_0_6_85
*447 FILLER_0_6_97
*448 FILLER_0_7_105
*449 FILLER_0_7_111
*450 FILLER_0_7_113
*451 FILLER_0_7_125
*452 FILLER_0_7_21
*453 FILLER_0_7_33
*454 FILLER_0_7_45
*455 FILLER_0_7_53
*456 FILLER_0_7_57
*457 FILLER_0_7_71
*458 FILLER_0_7_81
*459 FILLER_0_7_9
*460 FILLER_0_7_93
*461 FILLER_0_8_109
*462 FILLER_0_8_121
*463 FILLER_0_8_129
*464 FILLER_0_8_15
*465 FILLER_0_8_27
*466 FILLER_0_8_3
*467 FILLER_0_8_42
*468 FILLER_0_8_55
*469 FILLER_0_8_67
*470 FILLER_0_8_79
*471 FILLER_0_8_83
*472 FILLER_0_8_85
*473 FILLER_0_8_97
*474 FILLER_0_9_110
*475 FILLER_0_9_126
*476 FILLER_0_9_130
*477 FILLER_0_9_19
*478 FILLER_0_9_28
*479 FILLER_0_9_3
*480 FILLER_0_9_40
*481 FILLER_0_9_52
*482 FILLER_0_9_57
*483 FILLER_0_9_65
*484 FILLER_0_9_77
*485 FILLER_0_9_89
*486 FILLER_0_9_98
*487 PHY_0
*488 PHY_1
*489 PHY_10
*490 PHY_11
*491 PHY_12
*492 PHY_13
*493 PHY_14
*494 PHY_15
*495 PHY_16
*496 PHY_17
*497 PHY_18
*498 PHY_19
*499 PHY_2
*500 PHY_20
*501 PHY_21
*502 PHY_22
*503 PHY_23
*504 PHY_24
*505 PHY_25
*506 PHY_26
*507 PHY_27
*508 PHY_28
*509 PHY_29
*510 PHY_3
*511 PHY_30
*512 PHY_31
*513 PHY_32
*514 PHY_33
*515 PHY_34
*516 PHY_35
*517 PHY_36
*518 PHY_37
*519 PHY_38
*520 PHY_39
*521 PHY_4
*522 PHY_40
*523 PHY_41
*524 PHY_42
*525 PHY_43
*526 PHY_5
*527 PHY_6
*528 PHY_7
*529 PHY_8
*530 PHY_9
*531 TAP_44
*532 TAP_45
*533 TAP_46
*534 TAP_47
*535 TAP_48
*536 TAP_49
*537 TAP_50
*538 TAP_51
*539 TAP_52
*540 TAP_53
*541 TAP_54
*542 TAP_55
*543 TAP_56
*544 TAP_57
*545 TAP_58
*546 TAP_59
*547 TAP_60
*548 TAP_61
*549 TAP_62
*550 TAP_63
*551 TAP_64
*552 TAP_65
*553 TAP_66
*554 TAP_67
*555 TAP_68
*556 TAP_69
*557 TAP_70
*558 TAP_71
*559 TAP_72
*560 TAP_73
*561 TAP_74
*562 TAP_75
*563 TAP_76
*564 TAP_77
*565 TAP_78
*566 TAP_79
*567 TAP_80
*568 TAP_81
*569 TAP_82
*570 TAP_83
*571 TAP_84
*572 TAP_85
*573 TAP_86
*574 TAP_87
*575 TAP_88
*576 TAP_89
*577 TAP_90
*578 TAP_91
*579 _094_
*580 _095_
*581 _096_
*582 _097_
*583 _098_
*584 _099_
*585 _100_
*586 _101_
*587 _102_
*588 _103_
*589 _104_
*590 _105_
*591 _106_
*592 _107_
*593 _108_
*594 _109_
*595 _110_
*596 _111_
*597 _112_
*598 _113_
*599 _114_
*600 _115_
*601 _116_
*602 _117_
*603 _118_
*604 _119_
*605 _120_
*606 _121_
*607 _122_
*608 _123_
*609 _124_
*610 _125_
*611 _126_
*612 _127_
*613 _128_
*614 _129_
*615 _130_
*616 _131_
*617 _132_
*618 _133_
*619 _134_
*620 _135_
*621 _136_
*622 _137_
*623 _138_
*624 _139_
*625 _140_
*626 _141_
*627 _142_
*628 _143_
*629 _144_
*630 _145_
*631 _146_
*632 _147_
*633 _148_
*634 _149_
*635 _150_
*636 _151_
*637 _152_
*638 _153_
*639 _154_
*640 _155_
*641 _156_
*642 _157_
*643 _158_
*644 _159_
*645 _160_
*646 _161_
*647 _162_
*648 _163_
*649 _164_
*650 _165_
*651 _166_
*652 _167_
*653 _168_
*654 _169_
*655 _170_
*656 _171_
*657 _172_
*658 _173_
*659 _174_
*660 _175_
*661 _176_
*662 _177_
*663 _178_
*664 _179_
*665 _180_
*666 _181_
*667 _182_
*668 _183_
*669 _184_
*670 _185_
*671 _186_
*672 _187_
*673 _188_
*674 _189_
*675 _190_
*676 _191_
*677 _192_
*678 _193_
*679 _194_
*680 _195_
*681 _196_
*682 _197_
*683 _198_
*684 _199_
*685 _200_
*686 _201_
*687 _202_
*688 _203_
*689 input1
*690 input10
*691 input11
*692 input12
*693 input13
*694 input14
*695 input15
*696 input16
*697 input17
*698 input18
*699 input19
*700 input2
*701 input20
*702 input21
*703 input22
*704 input23
*705 input24
*706 input25
*707 input26
*708 input27
*709 input28
*710 input29
*711 input3
*712 input30
*713 input31
*714 input32
*715 input4
*716 input5
*717 input6
*718 input7
*719 input8
*720 input9
*721 output33
*722 output34
*723 output35
*724 output36
*725 output37
*726 output38
*727 output39
*728 output40
*729 output41
*730 output42
*731 output43
*732 output44
*733 output45
*734 output46
*735 output47
*736 output48

*PORTS
A[0] I
A[10] I
A[11] I
A[12] I
A[13] I
A[14] I
A[15] I
A[1] I
A[2] I
A[3] I
A[4] I
A[5] I
A[6] I
A[7] I
A[8] I
A[9] I
B[0] I
B[10] I
B[11] I
B[12] I
B[13] I
B[14] I
B[15] I
B[1] I
B[2] I
B[3] I
B[4] I
B[5] I
B[6] I
B[7] I
B[8] I
B[9] I
SUM[0] O
SUM[10] O
SUM[11] O
SUM[12] O
SUM[13] O
SUM[14] O
SUM[15] O
SUM[1] O
SUM[2] O
SUM[3] O
SUM[4] O
SUM[5] O
SUM[6] O
SUM[7] O
SUM[8] O
SUM[9] O

*D_NET *1 0.000945775
*CONN
*P A[0] I
*I *689:A I *D sky130_fd_sc_hd__buf_1
*CAP
1 A[0] 0.000423654
2 *689:A 0.000423654
3 *689:A SUM[8] 0
4 *689:A *690:A 0
5 *689:A *711:A 0
6 *689:A *735:A 9.84673e-05
7 *689:A *146:10 0
*RES
1 A[0] *689:A 23.281 
*END

*D_NET *2 0.00104723
*CONN
*P A[10] I
*I *700:A I *D sky130_fd_sc_hd__clkbuf_2
*CAP
1 A[10] 0.000496351
2 *700:A 0.000496351
3 *700:A SUM[0] 0
4 *700:A *691:A 0
5 *700:A *697:A 0
6 *700:A *718:A 0
7 *700:A *156:10 5.45307e-05
*RES
1 A[10] *700:A 24.0846 
*END

*D_NET *3 0.000552931
*CONN
*P A[11] I
*I *711:A I *D sky130_fd_sc_hd__clkbuf_2
*CAP
1 A[11] 0.000276465
2 *711:A 0.000276465
3 *711:A *699:A 0
4 *689:A *711:A 0
*RES
1 A[11] *711:A 20.6554 
*END

*D_NET *4 0.0010729
*CONN
*P A[12] I
*I *715:A I *D sky130_fd_sc_hd__clkbuf_2
*CAP
1 A[12] 0.00053645
2 *715:A 0.00053645
3 *715:A SUM[3] 0
*RES
1 A[12] *715:A 25.7643 
*END

*D_NET *5 0.0005957
*CONN
*P A[13] I
*I *716:A I *D sky130_fd_sc_hd__clkbuf_2
*CAP
1 A[13] 0.000248328
2 *716:A 0.000248328
3 *716:A *692:A 0
4 *716:A *708:A 9.90431e-05
5 *716:A *709:A 0
6 *716:A *719:A 0
*RES
1 A[13] *716:A 20.3518 
*END

*D_NET *6 0.00164644
*CONN
*P A[14] I
*I *717:A I *D sky130_fd_sc_hd__buf_1
*CAP
1 A[14] 0.000691732
2 *717:A 0.000691732
3 *717:A SUM[8] 5.71766e-05
4 *717:A *690:A 9.84673e-05
5 *717:A *701:A 0
6 *717:A *146:10 7.62237e-05
7 *717:A *157:10 3.11088e-05
*RES
1 A[14] *717:A 27.1929 
*END

*D_NET *7 0.000486653
*CONN
*P A[15] I
*I *718:A I *D sky130_fd_sc_hd__buf_1
*CAP
1 A[15] 0.000240422
2 *718:A 0.000240422
3 *718:A *720:A 0
4 *718:A *156:10 5.80858e-06
5 *700:A *718:A 0
*RES
1 A[15] *718:A 19.6024 
*END

*D_NET *8 0.000632567
*CONN
*P A[1] I
*I *719:A I *D sky130_fd_sc_hd__buf_1
*CAP
1 A[1] 0.000316283
2 *719:A 0.000316283
3 *719:A SUM[7] 0
4 *719:A *188:10 0
5 *719:A *191:14 0
6 *716:A *719:A 0
*RES
1 A[1] *719:A 21.4589 
*END

*D_NET *9 0.000712876
*CONN
*P A[2] I
*I *720:A I *D sky130_fd_sc_hd__clkbuf_2
*CAP
1 A[2] 0.000335065
2 *720:A 0.000335065
3 *720:A SUM[11] 0
4 *720:A *156:10 4.27461e-05
5 *718:A *720:A 0
*RES
1 A[2] *720:A 21.531 
*END

*D_NET *10 0.00172615
*CONN
*P A[3] I
*I *690:A I *D sky130_fd_sc_hd__clkbuf_2
*CAP
1 A[3] 0.000813841
2 *690:A 0.000813841
3 *689:A *690:A 0
4 *717:A *690:A 9.84673e-05
*RES
1 A[3] *690:A 29.9429 
*END

*D_NET *11 0.0015818
*CONN
*P A[4] I
*I *691:A I *D sky130_fd_sc_hd__clkbuf_2
*CAP
1 A[4] 0.000788835
2 *691:A 0.000788835
3 *691:A *695:A 0
4 *691:A *697:A 0
5 *691:A *721:A 4.13122e-06
6 *700:A *691:A 0
*RES
1 A[4] *691:A 26.5208 
*END

*D_NET *12 0.000646448
*CONN
*P A[5] I
*I *692:A I *D sky130_fd_sc_hd__clkbuf_2
*CAP
1 A[5] 0.000323224
2 *692:A 0.000323224
3 *692:A SUM[15] 0
4 *692:A *708:A 0
5 *692:A *709:A 0
6 *716:A *692:A 0
*RES
1 A[5] *692:A 21.2625 
*END

*D_NET *13 0.000607138
*CONN
*P A[6] I
*I *693:A I *D sky130_fd_sc_hd__clkbuf_2
*CAP
1 A[6] 0.000280982
2 *693:A 0.000280982
3 *693:A *712:A 0
4 *693:A *714:A 0
5 *693:A *181:14 4.51736e-05
*RES
1 A[6] *693:A 20.3167 
*END

*D_NET *14 0.00082464
*CONN
*P A[7] I
*I *694:A I *D sky130_fd_sc_hd__clkbuf_2
*CAP
1 A[7] 0.00041232
2 *694:A 0.00041232
*RES
1 A[7] *694:A 22.0679 
*END

*D_NET *15 0.000893998
*CONN
*P A[8] I
*I *695:A I *D sky130_fd_sc_hd__clkbuf_2
*CAP
1 A[8] 0.000446999
2 *695:A 0.000446999
3 *691:A *695:A 0
*RES
1 A[8] *695:A 23.9429 
*END

*D_NET *16 0.00151996
*CONN
*P A[9] I
*I *696:A I *D sky130_fd_sc_hd__clkbuf_2
*CAP
1 A[9] 0.000538538
2 *696:A 0.000538538
3 *696:A SUM[3] 0
4 *696:A *698:A 0
5 *696:A *712:A 0.000143427
6 *696:A *168:18 7.68438e-05
7 *696:A *181:14 0.000222616
*RES
1 A[9] *696:A 25.5323 
*END

*D_NET *17 0.00121096
*CONN
*P B[0] I
*I *697:A I *D sky130_fd_sc_hd__clkbuf_1
*CAP
1 B[0] 0.000551728
2 *697:A 0.000551728
3 *697:A *721:A 0.000107503
4 *691:A *697:A 0
5 *700:A *697:A 0
*RES
1 B[0] *697:A 25.1036 
*END

*D_NET *18 0.00187518
*CONN
*P B[10] I
*I *698:A I *D sky130_fd_sc_hd__clkbuf_2
*CAP
1 B[10] 0.000866216
2 *698:A 0.000866216
3 *698:A SUM[2] 0
4 *698:A SUM[3] 0
5 *698:A *712:A 5.05546e-05
6 *698:A *181:14 9.21941e-05
7 *696:A *698:A 0
*RES
1 B[10] *698:A 33.1369 
*END

*D_NET *19 0.000671758
*CONN
*P B[11] I
*I *699:A I *D sky130_fd_sc_hd__clkbuf_2
*CAP
1 B[11] 0.000335879
2 *699:A 0.000335879
3 *699:A *707:A 0
4 *699:A *188:10 0
5 *711:A *699:A 0
*RES
1 B[11] *699:A 21.8697 
*END

*D_NET *20 0.00161142
*CONN
*P B[12] I
*I *701:A I *D sky130_fd_sc_hd__clkbuf_2
*CAP
1 B[12] 0.000805709
2 *701:A 0.000805709
3 *701:A SUM[4] 0
4 *701:A SUM[8] 0
5 *717:A *701:A 0
*RES
1 B[12] *701:A 24.9682 
*END

*D_NET *21 0.0011034
*CONN
*P B[13] I
*I *702:A I *D sky130_fd_sc_hd__clkbuf_2
*CAP
1 B[13] 0.000551698
2 *702:A 0.000551698
*RES
1 B[13] *702:A 24.425 
*END

*D_NET *22 0.00119258
*CONN
*P B[14] I
*I *703:A I *D sky130_fd_sc_hd__buf_1
*CAP
1 B[14] 0.00055459
2 *703:A 0.00055459
3 *703:A *158:20 2.8451e-05
4 *703:A *161:16 5.49489e-05
*RES
1 B[14] *703:A 24.8536 
*END

*D_NET *23 0.000585565
*CONN
*P B[15] I
*I *704:A I *D sky130_fd_sc_hd__clkbuf_1
*CAP
1 B[15] 0.000292783
2 *704:A 0.000292783
3 *704:A SUM[7] 0
4 *704:A *687:A 0
5 *704:A *707:A 0
6 *704:A *188:10 0
*RES
1 B[15] *704:A 21.1554 
*END

*D_NET *24 0.000996455
*CONN
*P B[1] I
*I *705:A I *D sky130_fd_sc_hd__dlymetal6s2s_1
*CAP
1 B[1] 0.000498228
2 *705:A 0.000498228
*RES
1 B[1] *705:A 23.7821 
*END

*D_NET *25 0.00101348
*CONN
*P B[2] I
*I *706:A I *D sky130_fd_sc_hd__clkbuf_2
*CAP
1 B[2] 0.000506741
2 *706:A 0.000506741
*RES
1 B[2] *706:A 23.8893 
*END

*D_NET *26 0.000540982
*CONN
*P B[3] I
*I *707:A I *D sky130_fd_sc_hd__clkbuf_2
*CAP
1 B[3] 0.000270491
2 *707:A 0.000270491
3 *699:A *707:A 0
4 *704:A *707:A 0
*RES
1 B[3] *707:A 20.3518 
*END

*D_NET *27 0.00183358
*CONN
*P B[4] I
*I *708:A I *D sky130_fd_sc_hd__clkbuf_2
*CAP
1 B[4] 0.00086388
2 *708:A 0.00086388
3 *708:A *165:12 0
4 *708:A *177:12 0
5 *708:A *188:10 6.78055e-06
6 *692:A *708:A 0
7 *716:A *708:A 9.90431e-05
*RES
1 B[4] *708:A 28.5679 
*END

*D_NET *28 0.00177331
*CONN
*P B[5] I
*I *709:A I *D sky130_fd_sc_hd__clkbuf_2
*CAP
1 B[5] 0.000886656
2 *709:A 0.000886656
3 *692:A *709:A 0
4 *716:A *709:A 0
*RES
1 B[5] *709:A 30.7286 
*END

*D_NET *29 0.000609642
*CONN
*P B[6] I
*I *710:A I *D sky130_fd_sc_hd__clkbuf_2
*CAP
1 B[6] 0.000294481
2 *710:A 0.000294481
3 *710:A SUM[9] 0
4 *710:A *714:A 0
5 *710:A *181:14 2.06791e-05
*RES
1 B[6] *710:A 20.0132 
*END

*D_NET *30 0.000877779
*CONN
*P B[7] I
*I *712:A I *D sky130_fd_sc_hd__clkbuf_2
*CAP
1 B[7] 0.000297139
2 *712:A 0.000297139
3 *712:A *181:14 8.95199e-05
4 *693:A *712:A 0
5 *696:A *712:A 0.000143427
6 *698:A *712:A 5.05546e-05
*RES
1 B[7] *712:A 20.9239 
*END

*D_NET *31 0.00082464
*CONN
*P B[8] I
*I *713:A I *D sky130_fd_sc_hd__clkbuf_2
*CAP
1 B[8] 0.00041232
2 *713:A 0.00041232
*RES
1 B[8] *713:A 22.0679 
*END

*D_NET *32 0.000852128
*CONN
*P B[9] I
*I *714:A I *D sky130_fd_sc_hd__clkbuf_2
*CAP
1 B[9] 0.000307633
2 *714:A 0.000307633
3 *714:A *156:18 9.83388e-05
4 *714:A *181:14 0.000138522
5 *693:A *714:A 0
6 *710:A *714:A 0
*RES
1 B[9] *714:A 21.531 
*END

*D_NET *33 0.00132072
*CONN
*P SUM[0] O
*I *721:X O *D sky130_fd_sc_hd__clkbuf_4
*CAP
1 SUM[0] 0.000660359
2 *721:X 0.000660359
3 *700:A SUM[0] 0
*RES
1 *721:X SUM[0] 26.05 
*END

*D_NET *34 0.00107895
*CONN
*P SUM[10] O
*I *722:X O *D sky130_fd_sc_hd__clkbuf_4
*CAP
1 SUM[10] 0.000528993
2 *722:X 0.000528993
3 SUM[10] *158:20 2.0964e-05
*RES
1 *722:X SUM[10] 23.7107 
*END

*D_NET *35 0.00064208
*CONN
*P SUM[11] O
*I *723:X O *D sky130_fd_sc_hd__buf_2
*CAP
1 SUM[11] 0.000315944
2 *723:X 0.000315944
3 SUM[11] SUM[9] 0
4 SUM[11] *156:10 1.01912e-05
5 *720:A SUM[11] 0
*RES
1 *723:X SUM[11] 18.1949 
*END

*D_NET *36 0.00113096
*CONN
*P SUM[12] O
*I *724:X O *D sky130_fd_sc_hd__clkbuf_4
*CAP
1 SUM[12] 0.000459402
2 *724:X 0.000459402
3 SUM[12] SUM[15] 0.00018326
4 SUM[12] *174:12 2.89016e-05
*RES
1 *724:X SUM[12] 23.1214 
*END

*D_NET *37 0.000708884
*CONN
*P SUM[13] O
*I *725:X O *D sky130_fd_sc_hd__clkbuf_4
*CAP
1 SUM[13] 0.000354442
2 *725:X 0.000354442
3 SUM[13] SUM[15] 0
*RES
1 *725:X SUM[13] 20.6929 
*END

*D_NET *38 0.000794933
*CONN
*P SUM[14] O
*I *726:X O *D sky130_fd_sc_hd__clkbuf_4
*CAP
1 SUM[14] 0.000397466
2 *726:X 0.000397466
*RES
1 *726:X SUM[14] 21.7643 
*END

*D_NET *39 0.00233004
*CONN
*P SUM[15] O
*I *727:X O *D sky130_fd_sc_hd__clkbuf_4
*CAP
1 SUM[15] 0.00103211
2 *727:X 0.00103211
3 SUM[15] *174:12 8.25512e-05
4 SUM[12] SUM[15] 0.00018326
5 SUM[13] SUM[15] 0
6 *692:A SUM[15] 0
*RES
1 *727:X SUM[15] 29.0087 
*END

*D_NET *40 0.000861087
*CONN
*P SUM[1] O
*I *728:X O *D sky130_fd_sc_hd__clkbuf_4
*CAP
1 SUM[1] 0.000430544
2 *728:X 0.000430544
*RES
1 *728:X SUM[1] 23.6393 
*END

*D_NET *41 0.00208633
*CONN
*P SUM[2] O
*I *729:X O *D sky130_fd_sc_hd__clkbuf_4
*CAP
1 SUM[2] 0.000836764
2 *729:X 0.000836764
3 SUM[2] SUM[3] 5.65955e-05
4 SUM[2] *181:14 0.000356203
5 *698:A SUM[2] 0
*RES
1 *729:X SUM[2] 30.4607 
*END

*D_NET *42 0.00113417
*CONN
*P SUM[3] O
*I *730:X O *D sky130_fd_sc_hd__buf_2
*CAP
1 SUM[3] 0.000538789
2 *730:X 0.000538789
3 SUM[2] SUM[3] 5.65955e-05
4 *696:A SUM[3] 0
5 *698:A SUM[3] 0
6 *715:A SUM[3] 0
*RES
1 *730:X SUM[3] 24.1214 
*END

*D_NET *43 0.00119062
*CONN
*P SUM[4] O
*I *731:X O *D sky130_fd_sc_hd__clkbuf_4
*CAP
1 SUM[4] 0.000582983
2 *731:X 0.000582983
3 SUM[4] *189:14 2.46518e-05
4 *701:A SUM[4] 0
*RES
1 *731:X SUM[4] 25.1036 
*END

*D_NET *44 0.00114
*CONN
*P SUM[5] O
*I *732:X O *D sky130_fd_sc_hd__clkbuf_4
*CAP
1 SUM[5] 0.000565419
2 *732:X 0.000565419
3 SUM[5] *189:14 9.15842e-06
*RES
1 *732:X SUM[5] 23.8714 
*END

*D_NET *45 0.000861087
*CONN
*P SUM[6] O
*I *733:X O *D sky130_fd_sc_hd__clkbuf_4
*CAP
1 SUM[6] 0.000430544
2 *733:X 0.000430544
*RES
1 *733:X SUM[6] 23.6393 
*END

*D_NET *46 0.000505416
*CONN
*P SUM[7] O
*I *734:X O *D sky130_fd_sc_hd__clkbuf_4
*CAP
1 SUM[7] 0.000252708
2 *734:X 0.000252708
3 SUM[7] *188:10 0
4 *704:A SUM[7] 0
5 *719:A SUM[7] 0
*RES
1 *734:X SUM[7] 20.2447 
*END

*D_NET *47 0.000967448
*CONN
*P SUM[8] O
*I *735:X O *D sky130_fd_sc_hd__clkbuf_4
*CAP
1 SUM[8] 0.000455136
2 *735:X 0.000455136
3 *689:A SUM[8] 0
4 *701:A SUM[8] 0
5 *717:A SUM[8] 5.71766e-05
*RES
1 *735:X SUM[8] 21.8378 
*END

*D_NET *48 0.000770992
*CONN
*P SUM[9] O
*I *736:X O *D sky130_fd_sc_hd__buf_2
*CAP
1 SUM[9] 0.000352918
2 *736:X 0.000352918
3 SUM[9] *181:14 6.51562e-05
4 SUM[11] SUM[9] 0
5 *710:A SUM[9] 0
*RES
1 *736:X SUM[9] 20.6203 
*END

*D_NET *51 0.00932597
*CONN
*I *643:B I *D sky130_fd_sc_hd__nor2_1
*I *648:A I *D sky130_fd_sc_hd__or2_1
*I *638:A I *D sky130_fd_sc_hd__xnor2_1
*I *642:A3 I *D sky130_fd_sc_hd__o31ai_1
*I *631:Y O *D sky130_fd_sc_hd__xnor2_2
*CAP
1 *643:B 0.000326332
2 *648:A 0.000471502
3 *638:A 0.000505954
4 *642:A3 0.000401862
5 *631:Y 0
6 *51:58 0.00149403
7 *51:29 0.00189432
8 *51:4 0.00109403
9 *638:A *149:30 0.000528798
10 *638:A *166:10 1.90303e-05
11 *638:A *168:31 3.69047e-06
12 *638:A *180:14 0
13 *642:A3 *642:A1 9.83442e-05
14 *642:A3 *642:A2 7.41231e-05
15 *642:A3 *60:18 0.000238621
16 *642:A3 *69:28 6.57032e-05
17 *643:B *643:A 0.000136676
18 *643:B *658:A 3.50166e-05
19 *643:B *62:8 1.50637e-05
20 *643:B *139:21 0.000247117
21 *643:B *139:32 3.14003e-05
22 *648:A *628:A2 4.25176e-05
23 *648:A *629:A1 0.000140719
24 *648:A *629:A2 0.000142676
25 *648:A *629:B1 5.49995e-05
26 *648:A *644:A1 2.36643e-05
27 *648:A *648:B 5.65955e-05
28 *648:A *66:14 5.49489e-05
29 *648:A *128:31 6.47486e-05
30 *51:29 *631:A 0.000123352
31 *51:29 *641:B1 7.70035e-05
32 *51:29 *149:30 0.000307249
33 *51:29 *152:18 3.87235e-05
34 *51:29 *152:35 0.000159786
35 *51:29 *156:10 0
36 *51:29 *156:22 5.93525e-05
37 *51:29 *170:6 2.09072e-05
38 *51:29 *170:12 2.2816e-05
39 *51:58 *640:A1 0.000222664
40 *51:58 *640:A2 2.6923e-05
41 *51:58 *641:B1 4.71232e-06
*RES
1 *631:Y *51:4 9.3 
2 *51:4 *642:A3 17.8714 
3 *51:4 *51:29 24.3036 
4 *51:29 *638:A 32.0321 
5 *51:29 *51:58 13.4107 
6 *51:58 *648:A 17.925 
7 *51:58 *643:B 24.7821 
*END

*D_NET *52 0.00295699
*CONN
*I *635:A2 I *D sky130_fd_sc_hd__o21ai_1
*I *649:A I *D sky130_fd_sc_hd__nor2_1
*I *636:C I *D sky130_fd_sc_hd__nor3_1
*I *632:X O *D sky130_fd_sc_hd__or2_1
*CAP
1 *635:A2 0
2 *649:A 8.22475e-05
3 *636:C 0.000209936
4 *632:X 0.000343566
5 *52:14 0.000569608
6 *52:12 0.000620991
7 *636:C *636:B 5.08559e-05
8 *636:C *637:B 0.000322973
9 *636:C *671:A1 7.20217e-06
10 *636:C *67:14 0.000100248
11 *649:A *67:14 1.24368e-05
12 *52:12 *638:B 0.000441495
13 *52:12 *131:18 3.63281e-05
14 *52:14 *637:B 6.06291e-06
15 *52:14 *638:B 0.000138381
16 *52:14 *670:B2 7.47096e-06
17 *52:14 *55:6 7.18353e-06
*RES
1 *632:X *52:12 23.5679 
2 *52:12 *52:14 3.41071 
3 *52:14 *636:C 23.8536 
4 *52:14 *649:A 10.9964 
5 *52:12 *635:A2 9.3 
*END

*D_NET *53 0.000469319
*CONN
*I *634:B1 I *D sky130_fd_sc_hd__o21ai_1
*I *633:X O *D sky130_fd_sc_hd__a22o_1
*CAP
1 *634:B1 8.23794e-05
2 *633:X 8.23794e-05
3 *634:B1 *627:A2 0.000124019
4 *634:B1 *627:B1 0.000180541
*RES
1 *633:X *634:B1 29.7786 
*END

*D_NET *54 0.00339046
*CONN
*I *652:A1 I *D sky130_fd_sc_hd__o21ai_1
*I *635:B1 I *D sky130_fd_sc_hd__o21ai_1
*I *634:Y O *D sky130_fd_sc_hd__o21ai_1
*CAP
1 *652:A1 0.000256119
2 *635:B1 6.10564e-05
3 *634:Y 0.000811682
4 *54:6 0.00112886
5 *635:B1 *635:A1 4.82459e-05
6 *635:B1 *637:A 3.41517e-06
7 *635:B1 *638:B 1.21258e-05
8 *635:B1 *55:6 1.24368e-05
9 *652:A1 *654:A 9.47565e-05
10 *652:A1 *66:14 9.43765e-05
11 *54:6 *624:A 0.000185124
12 *54:6 *635:A1 8.68854e-05
13 *54:6 *638:B 0.000443652
14 *54:6 *139:8 9.67754e-05
15 *54:6 *169:33 5.49489e-05
*RES
1 *634:Y *54:6 24.6214 
2 *54:6 *635:B1 10.5679 
3 *54:6 *652:A1 22.9607 
*END

*D_NET *55 0.00143464
*CONN
*I *637:A I *D sky130_fd_sc_hd__or2_1
*I *670:B2 I *D sky130_fd_sc_hd__a2bb2o_1
*I *635:Y O *D sky130_fd_sc_hd__o21ai_1
*CAP
1 *637:A 2.15666e-05
2 *670:B2 0.000421863
3 *635:Y 0.000107966
4 *55:6 0.000551396
5 *670:B2 *637:B 9.94194e-06
6 *670:B2 *649:B 0
7 *670:B2 *69:32 0.000226146
8 *670:B2 *83:14 5.49489e-05
9 *55:6 *638:B 1.03037e-05
10 *635:B1 *637:A 3.41517e-06
11 *635:B1 *55:6 1.24368e-05
12 *52:14 *670:B2 7.47096e-06
13 *52:14 *55:6 7.18353e-06
*RES
1 *635:Y *55:6 10.6571 
2 *55:6 *670:B2 25.4964 
3 *55:6 *637:A 9.72857 
*END

*D_NET *56 0.00384347
*CONN
*I *637:B I *D sky130_fd_sc_hd__or2_1
*I *671:A1 I *D sky130_fd_sc_hd__a211o_1
*I *636:Y O *D sky130_fd_sc_hd__nor3_1
*CAP
1 *637:B 0.000391257
2 *671:A1 0.00120074
3 *636:Y 0
4 *56:4 0.001592
5 *671:A1 *606:B 0.000110561
6 *671:A1 *636:A 0.000106502
7 *671:A1 *636:B 3.79877e-06
8 *671:A1 *671:A2 4.42299e-06
9 *671:A1 *671:B1 8.10864e-06
10 *671:A1 *682:B 7.98959e-05
11 *636:C *637:B 0.000322973
12 *636:C *671:A1 7.20217e-06
13 *670:B2 *637:B 9.94194e-06
14 *52:14 *637:B 6.06291e-06
*RES
1 *636:Y *56:4 9.3 
2 *56:4 *671:A1 44.7107 
3 *56:4 *637:B 25.8089 
*END

*D_NET *57 0.00325625
*CONN
*I *638:B I *D sky130_fd_sc_hd__xnor2_1
*I *637:X O *D sky130_fd_sc_hd__or2_1
*CAP
1 *638:B 0.0008347
2 *637:X 0.0008347
3 *638:B *624:A 0.000101859
4 *638:B *634:A2 0.000268878
5 *638:B *635:A1 5.22622e-05
6 *638:B *149:30 9.66977e-05
7 *638:B *169:33 2.12005e-05
8 *635:B1 *638:B 1.21258e-05
9 *52:12 *638:B 0.000441495
10 *52:14 *638:B 0.000138381
11 *54:6 *638:B 0.000443652
12 *55:6 *638:B 1.03037e-05
*RES
1 *637:X *638:B 37.6357 
*END

*D_NET *58 0.0054511
*CONN
*I *646:A I *D sky130_fd_sc_hd__xnor2_1
*I *656:A I *D sky130_fd_sc_hd__nor2_1
*I *648:B I *D sky130_fd_sc_hd__or2_1
*I *639:Y O *D sky130_fd_sc_hd__xnor2_2
*CAP
1 *646:A 0.000127217
2 *656:A 0.000113588
3 *648:B 0.000146231
4 *639:Y 0.00084817
5 *58:12 0.00109447
6 *58:6 0.00181004
7 *646:A *630:A 9.58632e-05
8 *646:A *162:10 0.000121842
9 *648:B *644:A2 0.000112451
10 *656:A *658:A 5.49489e-05
11 *58:12 *630:B 0.000684915
12 *58:12 *644:A2 4.13122e-06
13 *58:12 *658:A 0.000147588
14 *58:12 *63:14 3.30575e-05
15 *648:A *648:B 5.65955e-05
*RES
1 *639:Y *58:6 18.4607 
2 *58:6 *58:12 19.1786 
3 *58:12 *648:B 17.1929 
4 *58:12 *656:A 15.5679 
5 *58:6 *646:A 20.8893 
*END

*D_NET *59 0.000362679
*CONN
*I *641:B1 I *D sky130_fd_sc_hd__o21ai_1
*I *640:X O *D sky130_fd_sc_hd__a22o_1
*CAP
1 *641:B1 0.000111262
2 *640:X 0.000111262
3 *641:B1 *640:B1 3.77134e-05
4 *641:B1 *149:30 2.07261e-05
5 *51:29 *641:B1 7.70035e-05
6 *51:58 *641:B1 4.71232e-06
*RES
1 *640:X *641:B1 29.7786 
*END

*D_NET *60 0.00208767
*CONN
*I *642:B1 I *D sky130_fd_sc_hd__o31ai_1
*I *663:A1 I *D sky130_fd_sc_hd__o221a_1
*I *641:Y O *D sky130_fd_sc_hd__o21ai_1
*CAP
1 *642:B1 0
2 *663:A1 7.7442e-05
3 *641:Y 0.000717408
4 *60:18 0.00079485
5 *60:18 *640:B2 8.25843e-06
6 *60:18 *642:A1 9.83442e-05
7 *60:18 *69:28 7.70035e-05
8 *60:18 *170:12 7.57394e-05
9 *642:A3 *60:18 0.000238621
*RES
1 *641:Y *60:18 29.4786 
2 *60:18 *663:A1 10.6571 
3 *60:18 *642:B1 9.3 
*END

*D_NET *61 0.00186562
*CONN
*I *645:A I *D sky130_fd_sc_hd__or2_1
*I *678:A1 I *D sky130_fd_sc_hd__a31o_1
*I *642:Y O *D sky130_fd_sc_hd__o31ai_1
*CAP
1 *645:A 0
2 *678:A1 0.000336407
3 *642:Y 0.000436235
4 *61:16 0.000772642
5 *678:A1 *678:A3 4.6025e-06
6 *678:A1 *678:B1 1.83136e-05
7 *678:A1 *679:A1 5.75194e-05
8 *678:A1 *63:14 9.83442e-05
9 *61:16 *630:A 0.000128562
10 *61:16 *646:B 1.29901e-05
*RES
1 *642:Y *61:16 25.7286 
2 *61:16 *678:A1 23.675 
3 *61:16 *645:A 9.3 
*END

*D_NET *62 0.00134829
*CONN
*I *658:A I *D sky130_fd_sc_hd__nand2_1
*I *644:C1 I *D sky130_fd_sc_hd__o211a_1
*I *643:Y O *D sky130_fd_sc_hd__nor2_1
*CAP
1 *658:A 0.000363459
2 *644:C1 0
3 *643:Y 6.50291e-05
4 *62:8 0.000428488
5 *658:A *644:A2 0.000116824
6 *658:A *644:B1 5.33005e-05
7 *658:A *63:14 5.65955e-05
8 *62:8 *644:A2 1.19813e-05
9 *643:B *658:A 3.50166e-05
10 *643:B *62:8 1.50637e-05
11 *656:A *658:A 5.49489e-05
12 *58:12 *658:A 0.000147588
*RES
1 *643:Y *62:8 10.5679 
2 *62:8 *644:C1 9.3 
3 *62:8 *658:A 25.3179 
*END

*D_NET *63 0.00289891
*CONN
*I *679:A1 I *D sky130_fd_sc_hd__a31o_1
*I *645:B I *D sky130_fd_sc_hd__or2_1
*I *644:X O *D sky130_fd_sc_hd__o211a_1
*CAP
1 *679:A1 0.00058531
2 *645:B 0
3 *644:X 0.000363357
4 *63:14 0.000948666
5 *679:A1 *678:B1 0.000271105
6 *679:A1 *679:A2 8.94803e-06
7 *679:A1 *679:A3 2.85802e-05
8 *679:A1 *679:B1 2.34071e-05
9 *63:14 *630:B 0.000424024
10 *658:A *63:14 5.65955e-05
11 *678:A1 *679:A1 5.75194e-05
12 *678:A1 *63:14 9.83442e-05
13 *58:12 *63:14 3.30575e-05
*RES
1 *644:X *63:14 26.2821 
2 *63:14 *645:B 9.3 
3 *63:14 *679:A1 17.9295 
*END

*D_NET *64 0.000684932
*CONN
*I *646:B I *D sky130_fd_sc_hd__xnor2_1
*I *645:X O *D sky130_fd_sc_hd__or2_1
*CAP
1 *646:B 0.000245992
2 *645:X 0.000245992
3 *646:B *162:10 0.00016753
4 *646:B *162:12 1.24293e-05
5 *61:16 *646:B 1.29901e-05
*RES
1 *645:X *646:B 32.5107 
*END

*D_NET *65 0.00754063
*CONN
*I *656:B I *D sky130_fd_sc_hd__nor2_1