* NGSPICE file created from baugh.ext - technology: sky130A

* Black-box entry subcircuit for sky130_fd_sc_hd__tapvpwrvgnd_1 abstract view
.subckt sky130_fd_sc_hd__tapvpwrvgnd_1 VGND VPWR
.ends

* Black-box entry subcircuit for sky130_fd_sc_hd__decap_4 abstract view
.subckt sky130_fd_sc_hd__decap_4 VGND VNB VPB VPWR
.ends

* Black-box entry subcircuit for sky130_fd_sc_hd__fill_2 abstract view
.subckt sky130_fd_sc_hd__fill_2 VGND VNB VPB VPWR
.ends

* Black-box entry subcircuit for sky130_fd_sc_hd__decap_3 abstract view
.subckt sky130_fd_sc_hd__decap_3 VGND VNB VPB VPWR
.ends

* Black-box entry subcircuit for sky130_fd_sc_hd__and2b_1 abstract view
.subckt sky130_fd_sc_hd__and2b_1 A_N B VGND VNB VPB VPWR X
.ends

* Black-box entry subcircuit for sky130_fd_sc_hd__a21o_1 abstract view
.subckt sky130_fd_sc_hd__a21o_1 A1 A2 B1 VGND VNB VPB VPWR X
.ends

* Black-box entry subcircuit for sky130_fd_sc_hd__buf_2 abstract view
.subckt sky130_fd_sc_hd__buf_2 A VGND VNB VPB VPWR X
.ends

* Black-box entry subcircuit for sky130_fd_sc_hd__decap_8 abstract view
.subckt sky130_fd_sc_hd__decap_8 VGND VNB VPB VPWR
.ends

* Black-box entry subcircuit for sky130_fd_sc_hd__buf_1 abstract view
.subckt sky130_fd_sc_hd__buf_1 A VGND VNB VPB VPWR X
.ends

* Black-box entry subcircuit for sky130_ef_sc_hd__decap_12 abstract view
.subckt sky130_ef_sc_hd__decap_12 VPWR VGND VPB VNB
.ends

* Black-box entry subcircuit for sky130_fd_sc_hd__buf_6 abstract view
.subckt sky130_fd_sc_hd__buf_6 A VGND VNB VPB VPWR X
.ends

* Black-box entry subcircuit for sky130_fd_sc_hd__fill_1 abstract view
.subckt sky130_fd_sc_hd__fill_1 VGND VNB VPB VPWR
.ends

* Black-box entry subcircuit for sky130_fd_sc_hd__decap_6 abstract view
.subckt sky130_fd_sc_hd__decap_6 VGND VNB VPB VPWR
.ends

* Black-box entry subcircuit for sky130_fd_sc_hd__or3_1 abstract view
.subckt sky130_fd_sc_hd__or3_1 A B C VGND VNB VPB VPWR X
.ends

* Black-box entry subcircuit for sky130_fd_sc_hd__xnor2_1 abstract view
.subckt sky130_fd_sc_hd__xnor2_1 A B VGND VNB VPB VPWR Y
.ends

* Black-box entry subcircuit for sky130_fd_sc_hd__a22o_1 abstract view
.subckt sky130_fd_sc_hd__a22o_1 A1 A2 B1 B2 VGND VNB VPB VPWR X
.ends

* Black-box entry subcircuit for sky130_fd_sc_hd__clkbuf_4 abstract view
.subckt sky130_fd_sc_hd__clkbuf_4 A VGND VNB VPB VPWR X
.ends

* Black-box entry subcircuit for sky130_fd_sc_hd__nand2_2 abstract view
.subckt sky130_fd_sc_hd__nand2_2 A B VGND VNB VPB VPWR Y
.ends

* Black-box entry subcircuit for sky130_fd_sc_hd__or4_4 abstract view
.subckt sky130_fd_sc_hd__or4_4 A B C D VGND VNB VPB VPWR X
.ends

* Black-box entry subcircuit for sky130_fd_sc_hd__or3_4 abstract view
.subckt sky130_fd_sc_hd__or3_4 A B C VGND VNB VPB VPWR X
.ends

* Black-box entry subcircuit for sky130_fd_sc_hd__nand3b_1 abstract view
.subckt sky130_fd_sc_hd__nand3b_1 A_N B C VGND VNB VPB VPWR Y
.ends

* Black-box entry subcircuit for sky130_fd_sc_hd__clkbuf_1 abstract view
.subckt sky130_fd_sc_hd__clkbuf_1 A VGND VNB VPB VPWR X
.ends

* Black-box entry subcircuit for sky130_fd_sc_hd__xor2_1 abstract view
.subckt sky130_fd_sc_hd__xor2_1 A B VGND VNB VPB VPWR X
.ends

* Black-box entry subcircuit for sky130_fd_sc_hd__and2_1 abstract view
.subckt sky130_fd_sc_hd__and2_1 A B VGND VNB VPB VPWR X
.ends

* Black-box entry subcircuit for sky130_fd_sc_hd__and4_1 abstract view
.subckt sky130_fd_sc_hd__and4_1 A B C D VGND VNB VPB VPWR X
.ends

* Black-box entry subcircuit for sky130_fd_sc_hd__o31a_1 abstract view
.subckt sky130_fd_sc_hd__o31a_1 A1 A2 A3 B1 VGND VNB VPB VPWR X
.ends

* Black-box entry subcircuit for sky130_fd_sc_hd__nand2_1 abstract view
.subckt sky130_fd_sc_hd__nand2_1 A B VGND VNB VPB VPWR Y
.ends

* Black-box entry subcircuit for sky130_fd_sc_hd__o211a_1 abstract view
.subckt sky130_fd_sc_hd__o211a_1 A1 A2 B1 C1 VGND VNB VPB VPWR X
.ends

* Black-box entry subcircuit for sky130_fd_sc_hd__and3_1 abstract view
.subckt sky130_fd_sc_hd__and3_1 A B C VGND VNB VPB VPWR X
.ends

* Black-box entry subcircuit for sky130_fd_sc_hd__a21bo_1 abstract view
.subckt sky130_fd_sc_hd__a21bo_1 A1 A2 B1_N VGND VNB VPB VPWR X
.ends

* Black-box entry subcircuit for sky130_fd_sc_hd__nor2_1 abstract view
.subckt sky130_fd_sc_hd__nor2_1 A B VGND VNB VPB VPWR Y
.ends

* Black-box entry subcircuit for sky130_fd_sc_hd__or2_1 abstract view
.subckt sky130_fd_sc_hd__or2_1 A B VGND VNB VPB VPWR X
.ends

* Black-box entry subcircuit for sky130_fd_sc_hd__a211oi_1 abstract view
.subckt sky130_fd_sc_hd__a211oi_1 A1 A2 B1 C1 VGND VNB VPB VPWR Y
.ends

* Black-box entry subcircuit for sky130_fd_sc_hd__nor2_2 abstract view
.subckt sky130_fd_sc_hd__nor2_2 A B VGND VNB VPB VPWR Y
.ends

* Black-box entry subcircuit for sky130_fd_sc_hd__o2bb2a_1 abstract view
.subckt sky130_fd_sc_hd__o2bb2a_1 A1_N A2_N B1 B2 VGND VNB VPB VPWR X
.ends

* Black-box entry subcircuit for sky130_fd_sc_hd__o21a_1 abstract view
.subckt sky130_fd_sc_hd__o21a_1 A1 A2 B1 VGND VNB VPB VPWR X
.ends

* Black-box entry subcircuit for sky130_fd_sc_hd__xnor2_2 abstract view
.subckt sky130_fd_sc_hd__xnor2_2 A B VGND VNB VPB VPWR Y
.ends

* Black-box entry subcircuit for sky130_fd_sc_hd__a21oi_1 abstract view
.subckt sky130_fd_sc_hd__a21oi_1 A1 A2 B1 VGND VNB VPB VPWR Y
.ends

* Black-box entry subcircuit for sky130_fd_sc_hd__o21ai_1 abstract view
.subckt sky130_fd_sc_hd__o21ai_1 A1 A2 B1 VGND VNB VPB VPWR Y
.ends

* Black-box entry subcircuit for sky130_fd_sc_hd__nand3_1 abstract view
.subckt sky130_fd_sc_hd__nand3_1 A B C VGND VNB VPB VPWR Y
.ends

* Black-box entry subcircuit for sky130_fd_sc_hd__or2b_1 abstract view
.subckt sky130_fd_sc_hd__or2b_1 A B_N VGND VNB VPB VPWR X
.ends

* Black-box entry subcircuit for sky130_fd_sc_hd__o21bai_2 abstract view
.subckt sky130_fd_sc_hd__o21bai_2 A1 A2 B1_N VGND VNB VPB VPWR Y
.ends

* Black-box entry subcircuit for sky130_fd_sc_hd__a22oi_1 abstract view
.subckt sky130_fd_sc_hd__a22oi_1 A1 A2 B1 B2 VGND VNB VPB VPWR Y
.ends

* Black-box entry subcircuit for sky130_fd_sc_hd__or3b_4 abstract view
.subckt sky130_fd_sc_hd__or3b_4 A B C_N VGND VNB VPB VPWR X
.ends

* Black-box entry subcircuit for sky130_fd_sc_hd__inv_2 abstract view
.subckt sky130_fd_sc_hd__inv_2 A VGND VNB VPB VPWR Y
.ends

* Black-box entry subcircuit for sky130_fd_sc_hd__nand4_2 abstract view
.subckt sky130_fd_sc_hd__nand4_2 A B C D VGND VNB VPB VPWR Y
.ends

* Black-box entry subcircuit for sky130_fd_sc_hd__a21boi_1 abstract view
.subckt sky130_fd_sc_hd__a21boi_1 A1 A2 B1_N VGND VNB VPB VPWR Y
.ends

* Black-box entry subcircuit for sky130_fd_sc_hd__a211oi_2 abstract view
.subckt sky130_fd_sc_hd__a211oi_2 A1 A2 B1 C1 VGND VNB VPB VPWR Y
.ends

* Black-box entry subcircuit for sky130_fd_sc_hd__o21ba_1 abstract view
.subckt sky130_fd_sc_hd__o21ba_1 A1 A2 B1_N VGND VNB VPB VPWR X
.ends

* Black-box entry subcircuit for sky130_fd_sc_hd__and4b_1 abstract view
.subckt sky130_fd_sc_hd__and4b_1 A_N B C D VGND VNB VPB VPWR X
.ends

* Black-box entry subcircuit for sky130_fd_sc_hd__a32o_1 abstract view
.subckt sky130_fd_sc_hd__a32o_1 A1 A2 A3 B1 B2 VGND VNB VPB VPWR X
.ends

* Black-box entry subcircuit for sky130_fd_sc_hd__a21oi_2 abstract view
.subckt sky130_fd_sc_hd__a21oi_2 A1 A2 B1 VGND VNB VPB VPWR Y
.ends

* Black-box entry subcircuit for sky130_fd_sc_hd__or3_2 abstract view
.subckt sky130_fd_sc_hd__or3_2 A B C VGND VNB VPB VPWR X
.ends

* Black-box entry subcircuit for sky130_fd_sc_hd__a31o_2 abstract view
.subckt sky130_fd_sc_hd__a31o_2 A1 A2 A3 B1 VGND VNB VPB VPWR X
.ends

* Black-box entry subcircuit for sky130_fd_sc_hd__nand3_4 abstract view
.subckt sky130_fd_sc_hd__nand3_4 A B C VGND VNB VPB VPWR Y
.ends

* Black-box entry subcircuit for sky130_fd_sc_hd__and4_2 abstract view
.subckt sky130_fd_sc_hd__and4_2 A B C D VGND VNB VPB VPWR X
.ends

* Black-box entry subcircuit for sky130_fd_sc_hd__a2bb2o_1 abstract view
.subckt sky130_fd_sc_hd__a2bb2o_1 A1_N A2_N B1 B2 VGND VNB VPB VPWR X
.ends

* Black-box entry subcircuit for sky130_fd_sc_hd__nand4_1 abstract view
.subckt sky130_fd_sc_hd__nand4_1 A B C D VGND VNB VPB VPWR Y
.ends

* Black-box entry subcircuit for sky130_fd_sc_hd__clkbuf_2 abstract view
.subckt sky130_fd_sc_hd__clkbuf_2 A VGND VNB VPB VPWR X
.ends

* Black-box entry subcircuit for sky130_fd_sc_hd__and4bb_1 abstract view
.subckt sky130_fd_sc_hd__and4bb_1 A_N B_N C D VGND VNB VPB VPWR X
.ends

* Black-box entry subcircuit for sky130_fd_sc_hd__and2_4 abstract view
.subckt sky130_fd_sc_hd__and2_4 A B VGND VNB VPB VPWR X
.ends

* Black-box entry subcircuit for sky130_fd_sc_hd__mux2_1 abstract view
.subckt sky130_fd_sc_hd__mux2_1 A0 A1 S VGND VNB VPB VPWR X
.ends

* Black-box entry subcircuit for sky130_fd_sc_hd__o211ai_2 abstract view
.subckt sky130_fd_sc_hd__o211ai_2 A1 A2 B1 C1 VGND VNB VPB VPWR Y
.ends

* Black-box entry subcircuit for sky130_fd_sc_hd__dlymetal6s2s_1 abstract view
.subckt sky130_fd_sc_hd__dlymetal6s2s_1 A VGND VNB VPB VPWR X
.ends

* Black-box entry subcircuit for sky130_fd_sc_hd__nor3b_1 abstract view
.subckt sky130_fd_sc_hd__nor3b_1 A B C_N VGND VNB VPB VPWR Y
.ends

* Black-box entry subcircuit for sky130_fd_sc_hd__a211o_1 abstract view
.subckt sky130_fd_sc_hd__a211o_1 A1 A2 B1 C1 VGND VNB VPB VPWR X
.ends

* Black-box entry subcircuit for sky130_fd_sc_hd__a21oi_4 abstract view
.subckt sky130_fd_sc_hd__a21oi_4 A1 A2 B1 VGND VNB VPB VPWR Y
.ends

* Black-box entry subcircuit for sky130_fd_sc_hd__o21ai_2 abstract view
.subckt sky130_fd_sc_hd__o21ai_2 A1 A2 B1 VGND VNB VPB VPWR Y
.ends

* Black-box entry subcircuit for sky130_fd_sc_hd__a22oi_2 abstract view
.subckt sky130_fd_sc_hd__a22oi_2 A1 A2 B1 B2 VGND VNB VPB VPWR Y
.ends

* Black-box entry subcircuit for sky130_fd_sc_hd__buf_4 abstract view
.subckt sky130_fd_sc_hd__buf_4 A VGND VNB VPB VPWR X
.ends

* Black-box entry subcircuit for sky130_fd_sc_hd__o311ai_4 abstract view
.subckt sky130_fd_sc_hd__o311ai_4 A1 A2 A3 B1 C1 VGND VNB VPB VPWR Y
.ends

* Black-box entry subcircuit for sky130_fd_sc_hd__a31o_1 abstract view
.subckt sky130_fd_sc_hd__a31o_1 A1 A2 A3 B1 VGND VNB VPB VPWR X
.ends

* Black-box entry subcircuit for sky130_fd_sc_hd__o21bai_1 abstract view
.subckt sky130_fd_sc_hd__o21bai_1 A1 A2 B1_N VGND VNB VPB VPWR Y
.ends

* Black-box entry subcircuit for sky130_fd_sc_hd__nor3_1 abstract view
.subckt sky130_fd_sc_hd__nor3_1 A B C VGND VNB VPB VPWR Y
.ends

* Black-box entry subcircuit for sky130_fd_sc_hd__buf_8 abstract view
.subckt sky130_fd_sc_hd__buf_8 A VGND VNB VPB VPWR X
.ends

* Black-box entry subcircuit for sky130_fd_sc_hd__and3b_1 abstract view
.subckt sky130_fd_sc_hd__and3b_1 A_N B C VGND VNB VPB VPWR X
.ends

* Black-box entry subcircuit for sky130_fd_sc_hd__xor2_2 abstract view
.subckt sky130_fd_sc_hd__xor2_2 A B VGND VNB VPB VPWR X
.ends

* Black-box entry subcircuit for sky130_fd_sc_hd__nand3_2 abstract view
.subckt sky130_fd_sc_hd__nand3_2 A B C VGND VNB VPB VPWR Y
.ends

* Black-box entry subcircuit for sky130_fd_sc_hd__a32oi_2 abstract view
.subckt sky130_fd_sc_hd__a32oi_2 A1 A2 A3 B1 B2 VGND VNB VPB VPWR Y
.ends

* Black-box entry subcircuit for sky130_fd_sc_hd__o22a_1 abstract view
.subckt sky130_fd_sc_hd__o22a_1 A1 A2 B1 B2 VGND VNB VPB VPWR X
.ends

* Black-box entry subcircuit for sky130_fd_sc_hd__nor4_1 abstract view
.subckt sky130_fd_sc_hd__nor4_1 A B C D VGND VNB VPB VPWR Y
.ends

* Black-box entry subcircuit for sky130_fd_sc_hd__o21a_4 abstract view
.subckt sky130_fd_sc_hd__o21a_4 A1 A2 B1 VGND VNB VPB VPWR X
.ends

* Black-box entry subcircuit for sky130_fd_sc_hd__o31a_2 abstract view
.subckt sky130_fd_sc_hd__o31a_2 A1 A2 A3 B1 VGND VNB VPB VPWR X
.ends

* Black-box entry subcircuit for sky130_fd_sc_hd__xnor2_4 abstract view
.subckt sky130_fd_sc_hd__xnor2_4 A B VGND VNB VPB VPWR Y
.ends

* Black-box entry subcircuit for sky130_fd_sc_hd__o21ba_2 abstract view
.subckt sky130_fd_sc_hd__o21ba_2 A1 A2 B1_N VGND VNB VPB VPWR X
.ends

.subckt baugh A[0] A[1] A[2] A[3] A[4] A[5] A[6] A[7] B[0] B[1] B[2] B[3] B[4] B[5]
+ B[6] B[7] P[0] P[10] P[11] P[12] P[13] P[14] P[15] P[1] P[2] P[3] P[4] P[5] P[6]
+ P[7] P[8] P[9] VGND VPWR
XTAP_177 VGND VPWR sky130_fd_sc_hd__tapvpwrvgnd_1
XTAP_188 VGND VPWR sky130_fd_sc_hd__tapvpwrvgnd_1
XFILLER_0_27_60 VGND VGND VPWR VPWR sky130_fd_sc_hd__decap_4
XTAP_199 VGND VPWR sky130_fd_sc_hd__tapvpwrvgnd_1
XFILLER_0_17_233 VGND VGND VPWR VPWR sky130_fd_sc_hd__fill_2
XFILLER_0_4_193 VGND VGND VPWR VPWR sky130_fd_sc_hd__decap_3
X_432_ _005_ _006_ VGND VGND VPWR VPWR _007_ sky130_fd_sc_hd__and2b_1
X_501_ _038_ _040_ _037_ VGND VGND VPWR VPWR _075_ sky130_fd_sc_hd__a21o_1
X_363_ net10 VGND VGND VPWR VPWR _286_ sky130_fd_sc_hd__buf_2
XFILLER_0_23_225 VGND VGND VPWR VPWR sky130_fd_sc_hd__decap_8
Xrebuffer7 _109_ VGND VGND VPWR VPWR net40 sky130_fd_sc_hd__buf_1
XFILLER_0_13_51 VGND VGND VPWR VPWR sky130_fd_sc_hd__decap_4
XFILLER_0_1_130 VPWR VGND VPWR VGND sky130_ef_sc_hd__decap_12
XFILLER_0_1_163 VGND VGND VPWR VPWR sky130_fd_sc_hd__decap_4
X_415_ net6 VGND VGND VPWR VPWR _348_ sky130_fd_sc_hd__buf_6
XFILLER_0_4_71 VPWR VGND VPWR VGND sky130_ef_sc_hd__decap_12
XFILLER_0_37_125 VPWR VGND VPWR VGND sky130_ef_sc_hd__decap_12
XFILLER_0_37_169 VGND VGND VPWR VPWR sky130_fd_sc_hd__decap_8
XFILLER_0_0_29 VPWR VGND VPWR VGND sky130_ef_sc_hd__decap_12
XFILLER_0_9_49 VGND VGND VPWR VPWR sky130_fd_sc_hd__fill_1
XFILLER_0_28_136 VGND VGND VPWR VPWR sky130_fd_sc_hd__decap_4
XFILLER_0_36_180 VGND VGND VPWR VPWR sky130_fd_sc_hd__decap_6
XFILLER_0_3_225 VGND VGND VPWR VPWR sky130_fd_sc_hd__decap_8
XFILLER_0_10_41 VPWR VGND VPWR VGND sky130_ef_sc_hd__decap_12
XFILLER_0_10_85 VPWR VGND VPWR VGND sky130_ef_sc_hd__decap_12
XFILLER_0_19_50 VGND VGND VPWR VPWR sky130_fd_sc_hd__decap_6
XFILLER_0_35_82 VPWR VGND VPWR VGND sky130_ef_sc_hd__decap_12
XFILLER_0_34_139 VGND VGND VPWR VPWR sky130_fd_sc_hd__fill_1
X_680_ _094_ _042_ _249_ VGND VGND VPWR VPWR _250_ sky130_fd_sc_hd__or3_1
XFILLER_0_0_217 VGND VGND VPWR VPWR sky130_fd_sc_hd__decap_3
XFILLER_0_34_3 VPWR VGND VPWR VGND sky130_ef_sc_hd__decap_12
XFILLER_0_39_209 VGND VGND VPWR VPWR sky130_fd_sc_hd__decap_8
XFILLER_0_15_161 VGND VGND VPWR VPWR sky130_fd_sc_hd__decap_6
XFILLER_0_30_153 VGND VGND VPWR VPWR sky130_fd_sc_hd__decap_4
XFILLER_0_30_197 VGND VGND VPWR VPWR sky130_fd_sc_hd__decap_4
X_663_ _190_ _231_ VGND VGND VPWR VPWR _232_ sky130_fd_sc_hd__xnor2_1
X_594_ net13 _094_ _134_ _311_ VGND VGND VPWR VPWR _165_ sky130_fd_sc_hd__a22o_1
XFILLER_0_16_51 VGND VGND VPWR VPWR sky130_fd_sc_hd__fill_2
XFILLER_0_12_120 VGND VGND VPWR VPWR sky130_fd_sc_hd__decap_4
XFILLER_0_12_197 VGND VGND VPWR VPWR sky130_fd_sc_hd__decap_4
XFILLER_0_35_223 VGND VGND VPWR VPWR sky130_fd_sc_hd__fill_1
Xoutput31 net31 VGND VGND VPWR VPWR P[8] sky130_fd_sc_hd__clkbuf_4
Xoutput20 net20 VGND VGND VPWR VPWR P[12] sky130_fd_sc_hd__clkbuf_4
X_715_ _284_ _285_ VGND VGND VPWR VPWR _287_ sky130_fd_sc_hd__nand2_2
X_646_ _118_ _181_ _182_ _211_ VGND VGND VPWR VPWR _215_ sky130_fd_sc_hd__or4_4
X_577_ _121_ _147_ _148_ VGND VGND VPWR VPWR _149_ sky130_fd_sc_hd__or3_4
XTAP_112 VGND VPWR sky130_fd_sc_hd__tapvpwrvgnd_1
XTAP_101 VGND VPWR sky130_fd_sc_hd__tapvpwrvgnd_1
XTAP_123 VGND VPWR sky130_fd_sc_hd__tapvpwrvgnd_1
XTAP_134 VGND VPWR sky130_fd_sc_hd__tapvpwrvgnd_1
XTAP_145 VGND VPWR sky130_fd_sc_hd__tapvpwrvgnd_1
XTAP_156 VGND VPWR sky130_fd_sc_hd__tapvpwrvgnd_1
XTAP_167 VGND VPWR sky130_fd_sc_hd__tapvpwrvgnd_1
XTAP_178 VGND VPWR sky130_fd_sc_hd__tapvpwrvgnd_1
XTAP_189 VGND VPWR sky130_fd_sc_hd__tapvpwrvgnd_1
XFILLER_0_17_212 VPWR VGND VPWR VGND sky130_ef_sc_hd__decap_12
X_500_ _036_ _071_ _072_ VGND VGND VPWR VPWR _074_ sky130_fd_sc_hd__nand3b_1
X_362_ net2 VGND VGND VPWR VPWR _275_ sky130_fd_sc_hd__buf_2
X_431_ _003_ _004_ _345_ VGND VGND VPWR VPWR _006_ sky130_fd_sc_hd__a21o_1
Xrebuffer8 net40 VGND VGND VPWR VPWR net41 sky130_fd_sc_hd__clkbuf_1
X_629_ _197_ _198_ VGND VGND VPWR VPWR _199_ sky130_fd_sc_hd__xor2_1
XFILLER_0_3_29 VGND VGND VPWR VPWR sky130_fd_sc_hd__decap_6
XFILLER_0_1_142 VGND VGND VPWR VPWR sky130_fd_sc_hd__decap_6
X_414_ net11 net4 VGND VGND VPWR VPWR _347_ sky130_fd_sc_hd__and2_1
XFILLER_0_24_40 VPWR VGND VPWR VGND sky130_ef_sc_hd__decap_12
XFILLER_0_6_234 VGND VGND VPWR VPWR sky130_fd_sc_hd__fill_1
XFILLER_0_4_83 VGND VGND VPWR VPWR sky130_fd_sc_hd__fill_1
XFILLER_0_37_137 VPWR VGND VPWR VGND sky130_ef_sc_hd__decap_12
XFILLER_0_29_18 VPWR VGND VPWR VGND sky130_ef_sc_hd__decap_12
XFILLER_0_28_159 VGND VGND VPWR VPWR sky130_fd_sc_hd__fill_1
XFILLER_0_10_53 VPWR VGND VPWR VGND sky130_ef_sc_hd__decap_12
XFILLER_0_10_97 VPWR VGND VPWR VGND sky130_ef_sc_hd__decap_12
XFILLER_0_19_148 VPWR VGND VPWR VGND sky130_ef_sc_hd__decap_12
XFILLER_0_35_94 VPWR VGND VPWR VGND sky130_ef_sc_hd__decap_12
XFILLER_0_31_19 VPWR VGND VPWR VGND sky130_ef_sc_hd__decap_12
XFILLER_0_33_151 VPWR VGND VPWR VGND sky130_ef_sc_hd__decap_12
XFILLER_0_16_118 VGND VGND VPWR VPWR sky130_fd_sc_hd__decap_4
XFILLER_0_21_30 VGND VGND VPWR VPWR sky130_fd_sc_hd__decap_8
XFILLER_0_27_3 VPWR VGND VPWR VGND sky130_ef_sc_hd__decap_12
XFILLER_0_30_121 VPWR VGND VPWR VGND sky130_ef_sc_hd__decap_12
X_662_ _226_ _230_ VGND VGND VPWR VPWR _231_ sky130_fd_sc_hd__xnor2_1
XFILLER_0_26_19 VGND VGND VPWR VPWR sky130_fd_sc_hd__decap_6
X_731_ _008_ _301_ VGND VGND VPWR VPWR net28 sky130_fd_sc_hd__xnor2_1
X_593_ net12 net13 net7 net8 VGND VGND VPWR VPWR _164_ sky130_fd_sc_hd__and4_1
XFILLER_0_6_29 VPWR VGND VPWR VGND sky130_ef_sc_hd__decap_12
XFILLER_0_16_85 VPWR VGND VPWR VGND sky130_ef_sc_hd__decap_12
XFILLER_0_8_115 VPWR VGND VPWR VGND sky130_ef_sc_hd__decap_12
XFILLER_0_29_221 VGND VGND VPWR VPWR sky130_fd_sc_hd__decap_3
XFILLER_0_32_95 VGND VGND VPWR VPWR sky130_fd_sc_hd__decap_8
Xoutput21 net21 VGND VGND VPWR VPWR P[13] sky130_fd_sc_hd__clkbuf_4
Xoutput32 net32 VGND VGND VPWR VPWR P[9] sky130_fd_sc_hd__clkbuf_4
X_645_ _181_ _183_ _211_ _213_ VGND VGND VPWR VPWR _214_ sky130_fd_sc_hd__o31a_1
X_714_ _281_ _283_ VGND VGND VPWR VPWR _285_ sky130_fd_sc_hd__nand2_1
X_576_ _145_ _146_ _105_ _122_ VGND VGND VPWR VPWR _148_ sky130_fd_sc_hd__o211a_1
XTAP_113 VGND VPWR sky130_fd_sc_hd__tapvpwrvgnd_1
XTAP_102 VGND VPWR sky130_fd_sc_hd__tapvpwrvgnd_1
XTAP_124 VGND VPWR sky130_fd_sc_hd__tapvpwrvgnd_1
XTAP_135 VGND VPWR sky130_fd_sc_hd__tapvpwrvgnd_1
XTAP_146 VGND VPWR sky130_fd_sc_hd__tapvpwrvgnd_1
XTAP_157 VGND VPWR sky130_fd_sc_hd__tapvpwrvgnd_1
XTAP_168 VGND VPWR sky130_fd_sc_hd__tapvpwrvgnd_1
XTAP_179 VGND VPWR sky130_fd_sc_hd__tapvpwrvgnd_1
XFILLER_0_27_51 VGND VGND VPWR VPWR sky130_fd_sc_hd__fill_1
XFILLER_0_7_94 VPWR VGND VPWR VGND sky130_ef_sc_hd__decap_12
X_361_ _255_ VGND VGND VPWR VPWR net17 sky130_fd_sc_hd__clkbuf_1
X_430_ _345_ _003_ _004_ VGND VGND VPWR VPWR _005_ sky130_fd_sc_hd__and3_1
Xrebuffer9 _051_ VGND VGND VPWR VPWR net42 sky130_fd_sc_hd__clkbuf_1
X_628_ _094_ _000_ VGND VGND VPWR VPWR _198_ sky130_fd_sc_hd__nand2_1
X_559_ net12 net7 net6 net13 VGND VGND VPWR VPWR _131_ sky130_fd_sc_hd__a22o_1
XFILLER_0_38_83 VGND VGND VPWR VPWR sky130_fd_sc_hd__fill_1
XFILLER_0_9_221 VGND VGND VPWR VPWR sky130_fd_sc_hd__decap_3
X_413_ _330_ _332_ _333_ VGND VGND VPWR VPWR _346_ sky130_fd_sc_hd__a21bo_1
XFILLER_0_34_19 VGND VGND VPWR VPWR sky130_fd_sc_hd__decap_8
XFILLER_0_24_52 VPWR VGND VPWR VGND sky130_ef_sc_hd__decap_12
XFILLER_0_24_85 VGND VGND VPWR VPWR sky130_fd_sc_hd__decap_6
XFILLER_0_37_149 VGND VGND VPWR VPWR sky130_fd_sc_hd__decap_8
XFILLER_0_9_29 VPWR VGND VPWR VGND sky130_ef_sc_hd__decap_12
XFILLER_0_10_65 VPWR VGND VPWR VGND sky130_ef_sc_hd__decap_12
XFILLER_0_19_96 VPWR VGND VPWR VGND sky130_ef_sc_hd__decap_12
XFILLER_0_35_51 VGND VGND VPWR VPWR sky130_fd_sc_hd__decap_4
XFILLER_0_19_138 VGND VGND VPWR VPWR sky130_fd_sc_hd__fill_1
XFILLER_0_33_163 VGND VGND VPWR VPWR sky130_fd_sc_hd__decap_4
XFILLER_0_21_53 VGND VGND VPWR VPWR sky130_fd_sc_hd__decap_3
XFILLER_0_24_141 VGND VGND VPWR VPWR sky130_fd_sc_hd__decap_8
XFILLER_0_30_133 VGND VGND VPWR VPWR sky130_fd_sc_hd__decap_6
X_661_ _228_ _229_ VGND VGND VPWR VPWR _230_ sky130_fd_sc_hd__nor2_1
X_592_ _124_ _162_ VGND VGND VPWR VPWR _163_ sky130_fd_sc_hd__xnor2_1
X_730_ _340_ _342_ VGND VGND VPWR VPWR _301_ sky130_fd_sc_hd__nand2_1
XFILLER_0_38_233 VGND VGND VPWR VPWR sky130_fd_sc_hd__fill_2
XFILLER_0_21_100 VPWR VGND VPWR VGND sky130_ef_sc_hd__decap_12
XFILLER_0_16_97 VGND VGND VPWR VPWR sky130_fd_sc_hd__decap_8
XFILLER_0_8_127 VPWR VGND VPWR VGND sky130_ef_sc_hd__decap_12
XFILLER_0_29_233 VGND VGND VPWR VPWR sky130_fd_sc_hd__fill_2
XFILLER_0_32_85 VGND VGND VPWR VPWR sky130_fd_sc_hd__fill_2
XFILLER_0_7_160 VGND VGND VPWR VPWR sky130_fd_sc_hd__decap_8
XFILLER_0_35_225 VGND VGND VPWR VPWR sky130_fd_sc_hd__decap_8
Xoutput22 net22 VGND VGND VPWR VPWR P[14] sky130_fd_sc_hd__buf_6
XFILLER_0_9_3 VPWR VGND VPWR VGND sky130_ef_sc_hd__decap_12
X_644_ _179_ _210_ _209_ VGND VGND VPWR VPWR _213_ sky130_fd_sc_hd__a21o_1
X_713_ _281_ _283_ VGND VGND VPWR VPWR _284_ sky130_fd_sc_hd__or2_1
X_575_ _105_ _122_ _145_ _146_ VGND VGND VPWR VPWR _147_ sky130_fd_sc_hd__a211oi_1
XFILLER_0_5_108 VGND VGND VPWR VPWR sky130_fd_sc_hd__decap_4
XTAP_114 VGND VPWR sky130_fd_sc_hd__tapvpwrvgnd_1
XTAP_103 VGND VPWR sky130_fd_sc_hd__tapvpwrvgnd_1
XTAP_125 VGND VPWR sky130_fd_sc_hd__tapvpwrvgnd_1
XTAP_136 VGND VPWR sky130_fd_sc_hd__tapvpwrvgnd_1
XTAP_147 VGND VPWR sky130_fd_sc_hd__tapvpwrvgnd_1
XTAP_158 VGND VPWR sky130_fd_sc_hd__tapvpwrvgnd_1
XTAP_169 VGND VPWR sky130_fd_sc_hd__tapvpwrvgnd_1
XFILLER_0_17_225 VGND VGND VPWR VPWR sky130_fd_sc_hd__decap_8
XFILLER_0_32_206 VPWR VGND VPWR VGND sky130_ef_sc_hd__decap_12
XFILLER_0_7_51 VGND VGND VPWR VPWR sky130_fd_sc_hd__decap_4
X_360_ _234_ _245_ VGND VGND VPWR VPWR _255_ sky130_fd_sc_hd__and2_1
XFILLER_0_23_206 VPWR VGND VPWR VGND sky130_ef_sc_hd__decap_12
X_627_ _195_ _196_ VGND VGND VPWR VPWR _197_ sky130_fd_sc_hd__nor2_2
X_558_ net12 net13 net6 VGND VGND VPWR VPWR _130_ sky130_fd_sc_hd__and3_1
X_489_ _060_ _061_ _053_ VGND VGND VPWR VPWR _063_ sky130_fd_sc_hd__a21o_1
XFILLER_0_1_111 VGND VGND VPWR VPWR sky130_fd_sc_hd__fill_1
XFILLER_0_20_209 VPWR VGND VPWR VGND sky130_ef_sc_hd__decap_12
X_412_ _329_ _337_ _336_ VGND VGND VPWR VPWR _345_ sky130_fd_sc_hd__a21o_1
XFILLER_0_11_209 VPWR VGND VPWR VGND sky130_ef_sc_hd__decap_12
XFILLER_0_24_64 VPWR VGND VPWR VGND sky130_ef_sc_hd__decap_12
XFILLER_0_4_85 VPWR VGND VPWR VGND sky130_ef_sc_hd__decap_12
XFILLER_0_9_19 VGND VGND VPWR VPWR sky130_fd_sc_hd__fill_1
XFILLER_0_10_77 VGND VGND VPWR VPWR sky130_fd_sc_hd__decap_6
XFILLER_0_34_109 VPWR VGND VPWR VGND sky130_ef_sc_hd__decap_12
XFILLER_0_0_209 VGND VGND VPWR VPWR sky130_fd_sc_hd__decap_8
XFILLER_0_33_120 VPWR VGND VPWR VGND sky130_ef_sc_hd__decap_12
XFILLER_0_33_197 VPWR VGND VPWR VGND sky130_ef_sc_hd__decap_12
XFILLER_0_24_120 VPWR VGND VPWR VGND sky130_ef_sc_hd__decap_12
XFILLER_0_21_76 VPWR VGND VPWR VGND sky130_ef_sc_hd__decap_12
XFILLER_0_24_197 VGND VGND VPWR VPWR sky130_fd_sc_hd__decap_3
XFILLER_0_1_31 VPWR VGND VPWR VGND sky130_ef_sc_hd__decap_12
XFILLER_0_1_64 VGND VGND VPWR VPWR sky130_fd_sc_hd__fill_1
X_591_ _158_ _161_ VGND VGND VPWR VPWR _162_ sky130_fd_sc_hd__xor2_1
X_660_ _094_ _010_ _042_ _348_ VGND VGND VPWR VPWR _229_ sky130_fd_sc_hd__o2bb2a_1
XFILLER_0_21_123 VGND VGND VPWR VPWR sky130_fd_sc_hd__decap_6
XFILLER_0_8_106 VGND VGND VPWR VPWR sky130_fd_sc_hd__decap_3
XFILLER_0_8_139 VGND VGND VPWR VPWR sky130_fd_sc_hd__fill_1
XFILLER_0_32_3 VPWR VGND VPWR VGND sky130_ef_sc_hd__decap_12
Xoutput23 net23 VGND VGND VPWR VPWR P[15] sky130_fd_sc_hd__clkbuf_4
X_712_ _276_ _252_ _282_ VGND VGND VPWR VPWR _283_ sky130_fd_sc_hd__o21a_1
X_643_ _211_ _212_ VGND VGND VPWR VPWR net19 sky130_fd_sc_hd__xnor2_2
X_574_ _143_ _144_ _128_ VGND VGND VPWR VPWR _146_ sky130_fd_sc_hd__a21oi_1
XTAP_115 VGND VPWR sky130_fd_sc_hd__tapvpwrvgnd_1
XTAP_104 VGND VPWR sky130_fd_sc_hd__tapvpwrvgnd_1
XTAP_126 VGND VPWR sky130_fd_sc_hd__tapvpwrvgnd_1
XTAP_137 VGND VPWR sky130_fd_sc_hd__tapvpwrvgnd_1
XTAP_148 VGND VPWR sky130_fd_sc_hd__tapvpwrvgnd_1
XTAP_159 VGND VPWR sky130_fd_sc_hd__tapvpwrvgnd_1
XFILLER_0_4_197 VPWR VGND VPWR VGND sky130_ef_sc_hd__decap_12
XFILLER_0_32_218 VPWR VGND VPWR VGND sky130_ef_sc_hd__decap_12
XFILLER_0_23_218 VGND VGND VPWR VPWR sky130_fd_sc_hd__decap_6
XFILLER_0_13_55 VGND VGND VPWR VPWR sky130_fd_sc_hd__fill_1
X_626_ _311_ _326_ _134_ VGND VGND VPWR VPWR _196_ sky130_fd_sc_hd__o21ai_1
X_557_ _331_ net14 VGND VGND VPWR VPWR _129_ sky130_fd_sc_hd__nand2_1
X_488_ _053_ _060_ net38 VGND VGND VPWR VPWR _062_ sky130_fd_sc_hd__nand3_1
XFILLER_0_1_167 VGND VGND VPWR VPWR sky130_fd_sc_hd__fill_1
XFILLER_0_38_41 VPWR VGND VPWR VGND sky130_ef_sc_hd__decap_12
XFILLER_0_9_201 VPWR VGND VPWR VGND sky130_ef_sc_hd__decap_12
X_411_ _344_ VGND VGND VPWR VPWR net27 sky130_fd_sc_hd__clkbuf_1
X_609_ _178_ _155_ VGND VGND VPWR VPWR _180_ sky130_fd_sc_hd__or2b_1
XFILLER_0_24_10 VGND VGND VPWR VPWR sky130_fd_sc_hd__fill_2
XFILLER_0_39_181 VGND VGND VPWR VPWR sky130_fd_sc_hd__decap_4
XFILLER_0_24_76 VGND VGND VPWR VPWR sky130_fd_sc_hd__decap_8
XFILLER_0_10_221 VPWR VGND VPWR VGND sky130_ef_sc_hd__decap_12
XFILLER_0_4_97 VGND VGND VPWR VPWR sky130_fd_sc_hd__decap_6
XFILLER_0_36_151 VGND VGND VPWR VPWR sky130_fd_sc_hd__decap_4
XFILLER_0_36_195 VGND VGND VPWR VPWR sky130_fd_sc_hd__fill_1
XFILLER_0_18_195 VGND VGND VPWR VPWR sky130_fd_sc_hd__fill_1
XFILLER_0_21_66 VGND VGND VPWR VPWR sky130_fd_sc_hd__fill_2
XFILLER_0_21_88 VPWR VGND VPWR VGND sky130_ef_sc_hd__decap_12
XFILLER_0_24_154 VPWR VGND VPWR VGND sky130_ef_sc_hd__decap_12
XFILLER_0_1_43 VGND VGND VPWR VPWR sky130_fd_sc_hd__decap_4
XFILLER_0_1_54 VGND VGND VPWR VPWR sky130_fd_sc_hd__fill_2
XFILLER_0_15_110 VGND VGND VPWR VPWR sky130_fd_sc_hd__fill_2
XFILLER_0_30_102 VPWR VGND VPWR VGND sky130_ef_sc_hd__decap_12
XFILLER_0_30_157 VGND VGND VPWR VPWR sky130_fd_sc_hd__fill_1
XFILLER_0_30_168 VPWR VGND VPWR VGND sky130_ef_sc_hd__decap_12
XFILLER_0_38_213 VPWR VGND VPWR VGND sky130_ef_sc_hd__decap_12
X_590_ _159_ _160_ VGND VGND VPWR VPWR _161_ sky130_fd_sc_hd__nor2_1
XFILLER_0_21_113 VGND VGND VPWR VPWR sky130_fd_sc_hd__fill_2
XFILLER_0_16_11 VGND VGND VPWR VPWR sky130_fd_sc_hd__decap_3
XFILLER_0_25_3 VGND VGND VPWR VPWR sky130_fd_sc_hd__decap_6
XFILLER_0_35_205 VPWR VGND VPWR VGND sky130_ef_sc_hd__decap_12
Xoutput24 net24 VGND VGND VPWR VPWR P[1] sky130_fd_sc_hd__clkbuf_4
X_642_ _180_ _184_ _179_ VGND VGND VPWR VPWR _212_ sky130_fd_sc_hd__a21bo_1
X_711_ _228_ _253_ VGND VGND VPWR VPWR _282_ sky130_fd_sc_hd__nand2_1
X_573_ _128_ _143_ _144_ VGND VGND VPWR VPWR _145_ sky130_fd_sc_hd__and3_1
XTAP_116 VGND VPWR sky130_fd_sc_hd__tapvpwrvgnd_1
XTAP_105 VGND VPWR sky130_fd_sc_hd__tapvpwrvgnd_1
XTAP_127 VGND VPWR sky130_fd_sc_hd__tapvpwrvgnd_1
XTAP_138 VGND VPWR sky130_fd_sc_hd__tapvpwrvgnd_1
XTAP_149 VGND VPWR sky130_fd_sc_hd__tapvpwrvgnd_1
XFILLER_0_7_64 VPWR VGND VPWR VGND sky130_ef_sc_hd__decap_12
X_625_ _311_ net13 _134_ VGND VGND VPWR VPWR _195_ sky130_fd_sc_hd__and3_1
X_556_ _083_ _127_ VGND VGND VPWR VPWR _128_ sky130_fd_sc_hd__xor2_1
X_487_ _057_ _058_ _059_ VGND VGND VPWR VPWR _061_ sky130_fd_sc_hd__a21o_1
XFILLER_0_22_230 VGND VGND VPWR VPWR sky130_fd_sc_hd__decap_4
XFILLER_0_38_53 VPWR VGND VPWR VGND sky130_ef_sc_hd__decap_12
XFILLER_0_9_213 VGND VGND VPWR VPWR sky130_fd_sc_hd__decap_8
XFILLER_0_0_9 VGND VGND VPWR VPWR sky130_fd_sc_hd__decap_6
X_410_ _342_ _343_ VGND VGND VPWR VPWR _344_ sky130_fd_sc_hd__and2_1
X_608_ _155_ _178_ VGND VGND VPWR VPWR _179_ sky130_fd_sc_hd__or2b_1
X_539_ _109_ net39 _078_ VGND VGND VPWR VPWR _112_ sky130_fd_sc_hd__o21ai_1
XFILLER_0_10_233 VGND VGND VPWR VPWR sky130_fd_sc_hd__fill_2
XFILLER_0_36_141 VGND VGND VPWR VPWR sky130_fd_sc_hd__decap_6
XFILLER_0_19_108 VGND VGND VPWR VPWR sky130_fd_sc_hd__decap_4
XFILLER_0_18_163 VGND VGND VPWR VPWR sky130_fd_sc_hd__decap_4
XFILLER_0_24_166 VGND VGND VPWR VPWR sky130_fd_sc_hd__decap_4
XFILLER_0_1_99 VPWR VGND VPWR VGND sky130_ef_sc_hd__decap_12
XFILLER_0_38_225 VGND VGND VPWR VPWR sky130_fd_sc_hd__decap_8
XFILLER_0_21_136 VPWR VGND VPWR VGND sky130_ef_sc_hd__decap_12
XFILLER_0_21_169 VGND VGND VPWR VPWR sky130_fd_sc_hd__fill_1
XFILLER_0_29_225 VGND VGND VPWR VPWR sky130_fd_sc_hd__decap_8
XFILLER_0_12_158 VGND VGND VPWR VPWR sky130_fd_sc_hd__decap_6
XFILLER_0_18_3 VGND VGND VPWR VPWR sky130_fd_sc_hd__fill_1
XFILLER_0_35_217 VGND VGND VPWR VPWR sky130_fd_sc_hd__decap_6
Xoutput25 net25 VGND VGND VPWR VPWR P[2] sky130_fd_sc_hd__buf_2
X_641_ _209_ _210_ VGND VGND VPWR VPWR _211_ sky130_fd_sc_hd__or2b_1
X_710_ _279_ _280_ VGND VGND VPWR VPWR _281_ sky130_fd_sc_hd__nand2_1
X_572_ _140_ _141_ _142_ VGND VGND VPWR VPWR _144_ sky130_fd_sc_hd__o21bai_2
XTAP_117 VGND VPWR sky130_fd_sc_hd__tapvpwrvgnd_1
XTAP_106 VGND VPWR sky130_fd_sc_hd__tapvpwrvgnd_1
XTAP_128 VGND VPWR sky130_fd_sc_hd__tapvpwrvgnd_1
XTAP_139 VGND VPWR sky130_fd_sc_hd__tapvpwrvgnd_1
XPHY_0 VGND VGND VPWR VPWR sky130_fd_sc_hd__decap_3
XFILLER_0_27_55 VGND VGND VPWR VPWR sky130_fd_sc_hd__fill_1
XFILLER_0_4_111 VPWR VGND VPWR VGND sky130_ef_sc_hd__decap_12
XFILLER_0_7_76 VGND VGND VPWR VPWR sky130_fd_sc_hd__decap_8
X_624_ _159_ _193_ VGND VGND VPWR VPWR _194_ sky130_fd_sc_hd__xnor2_1
X_555_ _123_ _126_ VGND VGND VPWR VPWR _127_ sky130_fd_sc_hd__xor2_1
XFILLER_0_13_57 VPWR VGND VPWR VGND sky130_ef_sc_hd__decap_12
XFILLER_0_14_209 VPWR VGND VPWR VGND sky130_ef_sc_hd__decap_12
X_486_ _057_ _058_ _059_ VGND VGND VPWR VPWR _060_ sky130_fd_sc_hd__nand3_1
XFILLER_0_1_169 VGND VGND VPWR VPWR sky130_fd_sc_hd__decap_6
XFILLER_0_38_65 VPWR VGND VPWR VGND sky130_ef_sc_hd__decap_12
XFILLER_0_9_225 VGND VGND VPWR VPWR sky130_fd_sc_hd__decap_4
X_607_ _157_ _177_ VGND VGND VPWR VPWR _178_ sky130_fd_sc_hd__xnor2_1
XFILLER_0_24_23 VGND VGND VPWR VPWR sky130_fd_sc_hd__decap_4
X_538_ _078_ _109_ _110_ VGND VGND VPWR VPWR _111_ sky130_fd_sc_hd__or3_4
XFILLER_0_6_228 VGND VGND VPWR VPWR sky130_fd_sc_hd__decap_6
X_469_ _303_ net14 _010_ _275_ VGND VGND VPWR VPWR _043_ sky130_fd_sc_hd__a22oi_1
XFILLER_0_4_33 VGND VGND VPWR VPWR sky130_fd_sc_hd__fill_1
XFILLER_0_36_197 VPWR VGND VPWR VGND sky130_ef_sc_hd__decap_12
XFILLER_0_35_55 VGND VGND VPWR VPWR sky130_fd_sc_hd__fill_1
XFILLER_0_27_131 VGND VGND VPWR VPWR sky130_fd_sc_hd__decap_6