*SPEF "ieee 1481-1999"
*DESIGN "booth"
*DATE "11:11:11 Fri 11 11, 1111"
*VENDOR "OpenRCX"
*PROGRAM "Parallel Extraction"
*VERSION "1.0"
*DESIGN_FLOW "NAME_SCOPE LOCAL" "PIN_CAP NONE"
*DIVIDER /
*DELIMITER :
*BUS_DELIMITER []
*T_UNIT 1 NS
*C_UNIT 1 PF
*R_UNIT 1 OHM
*L_UNIT 1 HENRY

*NAME_MAP
*3 multiplicand[0]
*4 multiplicand[1]
*5 multiplicand[2]
*6 multiplicand[3]
*7 multiplicand[4]
*8 multiplicand[5]
*9 multiplicand[6]
*10 multiplicand[7]
*11 multiplier[0]
*12 multiplier[1]
*13 multiplier[2]
*14 multiplier[3]
*15 multiplier[4]
*16 multiplier[5]
*17 multiplier[6]
*18 multiplier[7]
*19 product[0]
*20 product[10]
*21 product[11]
*22 product[12]
*23 product[13]
*24 product[14]
*25 product[15]
*26 product[1]
*27 product[2]
*28 product[3]
*29 product[4]
*30 product[5]
*31 product[6]
*32 product[7]
*33 product[8]
*34 product[9]
*35 _000_
*36 _001_
*37 _002_
*38 _003_
*39 _004_
*40 _005_
*41 _006_
*42 _007_
*43 _008_
*44 _009_
*45 _010_
*46 _011_
*47 _012_
*48 _013_
*49 _014_
*50 _015_
*51 _016_
*52 _017_
*53 _018_
*54 _019_
*55 _020_
*56 _021_
*57 _022_
*58 _023_
*59 _024_
*60 _025_
*61 _026_
*62 _027_
*63 _028_
*64 _029_
*65 _030_
*66 _031_
*67 _032_
*68 _033_
*69 _034_
*70 _035_
*71 _036_
*72 _037_
*73 _038_
*74 _039_
*75 _040_
*76 _041_
*77 _042_
*78 _043_
*79 _044_
*80 _045_
*81 _046_
*82 _047_
*83 _048_
*84 _049_
*85 _050_
*86 _051_
*87 _052_
*88 _053_
*89 _054_
*90 _055_
*91 _056_
*92 _057_
*93 _058_
*94 _059_
*95 _060_
*96 _061_
*97 _062_
*98 _063_
*99 _064_
*100 _065_
*101 _066_
*102 _067_
*103 _068_
*104 _069_
*105 _070_
*106 _071_
*107 _072_
*108 _073_
*109 _074_
*110 _075_
*111 _076_
*112 _077_
*113 _078_
*114 _079_
*115 _080_
*116 _081_
*117 _082_
*118 _083_
*119 _084_
*120 _085_
*121 _086_
*122 _087_
*123 _088_
*124 _089_
*125 _090_
*126 _091_
*127 _092_
*128 _093_
*129 _094_
*130 _095_
*131 _096_
*132 _097_
*133 _098_
*134 _099_
*135 _100_
*136 _101_
*137 _102_
*138 _103_
*139 _104_
*140 _105_
*141 _106_
*142 _107_
*143 _108_
*144 _109_
*145 _110_
*146 _111_
*147 _112_
*148 _113_
*149 _114_
*150 _115_
*151 _116_
*152 _117_
*153 _118_
*154 _119_
*155 _120_
*156 _121_
*157 _122_
*158 _123_
*159 _124_
*160 _125_
*161 _126_
*162 _127_
*163 _128_
*164 _129_
*165 _130_
*166 _131_
*167 _132_
*168 _133_
*169 _134_
*170 _135_
*171 _136_
*172 _137_
*173 _138_
*174 _139_
*175 _140_
*176 _141_
*177 _142_
*178 _143_
*179 _144_
*180 _145_
*181 _146_
*182 _147_
*183 _148_
*184 _149_
*185 _150_
*186 _151_
*187 _152_
*188 _153_
*189 _154_
*190 _155_
*191 _156_
*192 _157_
*193 _158_
*194 _159_
*195 _160_
*196 _161_
*197 _162_
*198 _163_
*199 _164_
*200 _165_
*201 _166_
*202 _167_
*203 _168_
*204 _169_
*205 _170_
*206 _171_
*207 _172_
*208 _173_
*209 _174_
*210 _175_
*211 _176_
*212 _177_
*213 _178_
*214 _179_
*215 _180_
*216 _181_
*217 _182_
*218 _183_
*219 _184_
*220 _185_
*221 _186_
*222 _187_
*223 _188_
*224 _189_
*225 _190_
*226 _191_
*227 _192_
*228 _193_
*229 _194_
*230 _195_
*231 _196_
*232 _197_
*233 _198_
*234 _199_
*235 _200_
*236 _201_
*237 _202_
*238 _203_
*239 _204_
*240 _205_
*241 _206_
*242 _207_
*243 _208_
*244 _209_
*245 _210_
*246 _211_
*247 _212_
*248 _213_
*249 _214_
*250 _215_
*251 _216_
*252 _217_
*253 _218_
*254 _219_
*255 _220_
*256 _221_
*257 _222_
*258 _223_
*259 _224_
*260 _225_
*261 _226_
*262 _227_
*263 _228_
*264 _229_
*265 _230_
*266 _231_
*267 _232_
*268 _233_
*269 _234_
*270 _235_
*271 _236_
*272 _237_
*273 _238_
*274 _239_
*275 _240_
*276 _241_
*277 _242_
*278 _243_
*279 _244_
*280 _245_
*281 _246_
*282 _247_
*283 _248_
*284 _249_
*285 _250_
*286 _251_
*287 _252_
*288 _253_
*289 _254_
*290 _255_
*291 _256_
*292 _257_
*293 _258_
*294 _259_
*295 _260_
*296 _261_
*297 _262_
*298 _263_
*299 _264_
*300 _265_
*301 _266_
*302 _267_
*303 _268_
*304 _269_
*305 _270_
*306 _271_
*307 _272_
*308 _273_
*309 _274_
*310 _275_
*311 _276_
*312 _277_
*313 _278_
*314 _279_
*315 _280_
*316 _281_
*317 _282_
*318 _283_
*319 _284_
*320 _285_
*321 _286_
*322 _287_
*323 _288_
*324 _289_
*325 _290_
*326 _291_
*327 _292_
*328 _293_
*329 _294_
*330 _295_
*331 _296_
*332 _297_
*333 _298_
*334 _299_
*335 _300_
*336 _301_
*337 _302_
*338 _303_
*339 _304_
*340 _305_
*341 _306_
*342 _307_
*343 _308_
*344 _309_
*345 _310_
*346 _311_
*347 _312_
*348 _313_
*349 _314_
*350 _315_
*351 _316_
*352 _317_
*353 _318_
*354 _319_
*355 _320_
*356 _321_
*357 _322_
*358 _323_
*359 _324_
*360 _325_
*361 _326_
*362 _327_
*363 _328_
*364 _329_
*365 _330_
*366 _331_
*367 _332_
*368 _333_
*369 _334_
*370 _335_
*371 _336_
*372 _337_
*373 _338_
*374 _339_
*375 _340_
*376 _341_
*377 _342_
*378 _343_
*379 _344_
*380 _345_
*381 _346_
*382 _347_
*383 _348_
*384 _349_
*385 _350_
*386 _351_
*387 _352_
*388 _353_
*389 _354_
*390 _355_
*391 _356_
*392 _357_
*393 _358_
*394 _359_
*395 _360_
*396 _361_
*397 _362_
*398 _363_
*399 _364_
*400 _365_
*401 _366_
*402 _367_
*403 _368_
*404 _369_
*405 _370_
*406 _371_
*407 _372_
*408 _373_
*409 _374_
*410 _375_
*411 _376_
*412 _377_
*413 _378_
*414 _379_
*415 _380_
*416 _381_
*417 _382_
*418 _383_
*419 _384_
*420 _385_
*421 _386_
*422 _387_
*423 _388_
*424 _389_
*425 _390_
*426 _391_
*427 _392_
*428 _393_
*429 _394_
*430 _395_
*431 _396_
*432 _397_
*433 _398_
*434 _399_
*435 _400_
*436 _401_
*437 _402_
*438 _403_
*439 _404_
*440 _405_
*441 _406_
*442 _407_
*443 _408_
*444 _409_
*445 _410_
*446 _411_
*447 _412_
*448 _413_
*449 _414_
*450 _415_
*451 _416_
*452 _417_
*453 _418_
*454 _419_
*455 _420_
*456 _421_
*457 _422_
*458 _423_
*459 _424_
*460 _425_
*461 _426_
*462 _427_
*463 _428_
*464 _429_
*465 _430_
*466 _431_
*467 _432_
*468 _433_
*469 _434_
*470 _435_
*471 _436_
*472 _437_
*473 _438_
*474 _439_
*475 _440_
*476 _441_
*477 _442_
*478 _443_
*479 _444_
*480 _445_
*481 _446_
*482 _447_
*483 _448_
*484 _449_
*485 _450_
*486 _451_
*487 _452_
*488 _453_
*489 net1
*490 net10
*491 net11
*492 net12
*493 net13
*494 net14
*495 net15
*496 net16
*497 net17
*498 net18
*499 net19
*500 net2
*501 net20
*502 net21
*503 net22
*504 net23
*505 net24
*506 net25
*507 net26
*508 net27
*509 net28
*510 net29
*511 net3
*512 net30
*513 net31
*514 net32
*515 net33
*516 net34
*517 net35
*518 net36
*519 net37
*520 net38
*521 net39
*522 net4
*523 net40
*524 net41
*525 net42
*526 net43
*527 net44
*528 net45
*529 net46
*530 net47
*531 net48
*532 net49
*533 net5
*534 net50
*535 net51
*536 net52
*537 net53
*538 net54
*539 net55
*540 net56
*541 net57
*542 net58
*543 net59
*544 net6
*545 net7
*546 net8
*547 net9
*548 FILLER_0_0_110
*549 FILLER_0_0_113
*550 FILLER_0_0_125
*551 FILLER_0_0_137
*552 FILLER_0_0_145
*553 FILLER_0_0_157
*554 FILLER_0_0_165
*555 FILLER_0_0_175
*556 FILLER_0_0_187
*557 FILLER_0_0_19
*558 FILLER_0_0_195
*559 FILLER_0_0_197
*560 FILLER_0_0_205
*561 FILLER_0_0_210
*562 FILLER_0_0_222
*563 FILLER_0_0_225
*564 FILLER_0_0_237
*565 FILLER_0_0_247
*566 FILLER_0_0_251
*567 FILLER_0_0_253
*568 FILLER_0_0_257
*569 FILLER_0_0_29
*570 FILLER_0_0_41
*571 FILLER_0_0_53
*572 FILLER_0_0_66
*573 FILLER_0_0_7
*574 FILLER_0_0_78
*575 FILLER_0_0_85
*576 FILLER_0_0_91
*577 FILLER_0_0_98
*578 FILLER_0_10_101
*579 FILLER_0_10_107
*580 FILLER_0_10_11
*581 FILLER_0_10_116
*582 FILLER_0_10_128
*583 FILLER_0_10_141
*584 FILLER_0_10_151
*585 FILLER_0_10_163
*586 FILLER_0_10_17
*587 FILLER_0_10_175
*588 FILLER_0_10_179
*589 FILLER_0_10_187
*590 FILLER_0_10_195
*591 FILLER_0_10_203
*592 FILLER_0_10_215
*593 FILLER_0_10_219
*594 FILLER_0_10_242
*595 FILLER_0_10_25
*596 FILLER_0_10_250
*597 FILLER_0_10_253
*598 FILLER_0_10_257
*599 FILLER_0_10_29
*600 FILLER_0_10_3
*601 FILLER_0_10_41
*602 FILLER_0_10_53
*603 FILLER_0_10_65
*604 FILLER_0_10_77
*605 FILLER_0_10_83
*606 FILLER_0_10_85
*607 FILLER_0_10_93
*608 FILLER_0_11_109
*609 FILLER_0_11_120
*610 FILLER_0_11_124
*611 FILLER_0_11_143
*612 FILLER_0_11_15
*613 FILLER_0_11_150
*614 FILLER_0_11_162
*615 FILLER_0_11_175
*616 FILLER_0_11_187
*617 FILLER_0_11_193
*618 FILLER_0_11_207
*619 FILLER_0_11_219
*620 FILLER_0_11_223
*621 FILLER_0_11_225
*622 FILLER_0_11_251
*623 FILLER_0_11_257
*624 FILLER_0_11_27
*625 FILLER_0_11_3
*626 FILLER_0_11_39
*627 FILLER_0_11_43
*628 FILLER_0_11_53
*629 FILLER_0_11_60
*630 FILLER_0_11_72
*631 FILLER_0_11_85
*632 FILLER_0_12_106
*633 FILLER_0_12_127
*634 FILLER_0_12_139
*635 FILLER_0_12_141
*636 FILLER_0_12_145
*637 FILLER_0_12_149
*638 FILLER_0_12_15
*639 FILLER_0_12_161
*640 FILLER_0_12_172
*641 FILLER_0_12_184
*642 FILLER_0_12_197
*643 FILLER_0_12_205
*644 FILLER_0_12_212
*645 FILLER_0_12_220
*646 FILLER_0_12_224
*647 FILLER_0_12_236
*648 FILLER_0_12_248
*649 FILLER_0_12_253
*650 FILLER_0_12_257
*651 FILLER_0_12_27
*652 FILLER_0_12_29
*653 FILLER_0_12_3
*654 FILLER_0_12_50
*655 FILLER_0_12_56
*656 FILLER_0_12_66
*657 FILLER_0_12_74
*658 FILLER_0_12_94
*659 FILLER_0_13_107
*660 FILLER_0_13_111
*661 FILLER_0_13_113
*662 FILLER_0_13_125
*663 FILLER_0_13_137
*664 FILLER_0_13_15
*665 FILLER_0_13_150
*666 FILLER_0_13_156
*667 FILLER_0_13_164
*668 FILLER_0_13_174
*669 FILLER_0_13_201
*670 FILLER_0_13_209
*671 FILLER_0_13_216
*672 FILLER_0_13_225
*673 FILLER_0_13_237
*674 FILLER_0_13_249
*675 FILLER_0_13_257
*676 FILLER_0_13_27
*677 FILLER_0_13_3
*678 FILLER_0_13_35
*679 FILLER_0_13_40
*680 FILLER_0_13_62
*681 FILLER_0_13_75
*682 FILLER_0_13_83
*683 FILLER_0_13_95
*684 FILLER_0_14_109
*685 FILLER_0_14_121
*686 FILLER_0_14_127
*687 FILLER_0_14_13
*688 FILLER_0_14_150
*689 FILLER_0_14_158
*690 FILLER_0_14_164
*691 FILLER_0_14_168
*692 FILLER_0_14_181
*693 FILLER_0_14_193
*694 FILLER_0_14_203
*695 FILLER_0_14_215
*696 FILLER_0_14_227
*697 FILLER_0_14_239
*698 FILLER_0_14_25
*699 FILLER_0_14_251
*700 FILLER_0_14_253
*701 FILLER_0_14_257
*702 FILLER_0_14_29
*703 FILLER_0_14_3
*704 FILLER_0_14_41
*705 FILLER_0_14_53
*706 FILLER_0_14_65
*707 FILLER_0_14_77
*708 FILLER_0_14_83
*709 FILLER_0_14_85
*710 FILLER_0_14_9
*711 FILLER_0_14_97
*712 FILLER_0_15_109
*713 FILLER_0_15_134
*714 FILLER_0_15_146
*715 FILLER_0_15_154
*716 FILLER_0_15_169
*717 FILLER_0_15_181
*718 FILLER_0_15_193
*719 FILLER_0_15_207
*720 FILLER_0_15_21
*721 FILLER_0_15_213
*722 FILLER_0_15_218
*723 FILLER_0_15_225
*724 FILLER_0_15_229
*725 FILLER_0_15_254
*726 FILLER_0_15_33
*727 FILLER_0_15_45
*728 FILLER_0_15_53
*729 FILLER_0_15_57
*730 FILLER_0_15_69
*731 FILLER_0_15_81
*732 FILLER_0_15_9
*733 FILLER_0_15_93
*734 FILLER_0_16_11
*735 FILLER_0_16_118
*736 FILLER_0_16_130
*737 FILLER_0_16_138
*738 FILLER_0_16_141
*739 FILLER_0_16_153
*740 FILLER_0_16_165
*741 FILLER_0_16_173
*742 FILLER_0_16_179
*743 FILLER_0_16_193
*744 FILLER_0_16_197
*745 FILLER_0_16_209
*746 FILLER_0_16_233
*747 FILLER_0_16_253
*748 FILLER_0_16_257
*749 FILLER_0_16_26
*750 FILLER_0_16_29
*751 FILLER_0_16_3
*752 FILLER_0_16_41
*753 FILLER_0_16_49
*754 FILLER_0_16_56
*755 FILLER_0_16_62
*756 FILLER_0_16_74
*757 FILLER_0_16_82
*758 FILLER_0_16_94
*759 FILLER_0_17_103
*760 FILLER_0_17_111
*761 FILLER_0_17_113
*762 FILLER_0_17_125
*763 FILLER_0_17_137
*764 FILLER_0_17_145
*765 FILLER_0_17_159
*766 FILLER_0_17_167
*767 FILLER_0_17_169
*768 FILLER_0_17_181
*769 FILLER_0_17_193
*770 FILLER_0_17_211
*771 FILLER_0_17_223
*772 FILLER_0_17_225
*773 FILLER_0_17_23
*774 FILLER_0_17_237
*775 FILLER_0_17_249
*776 FILLER_0_17_257
*777 FILLER_0_17_3
*778 FILLER_0_17_35
*779 FILLER_0_17_46
*780 FILLER_0_17_55
*781 FILLER_0_17_74
*782 FILLER_0_17_79
*783 FILLER_0_17_91
*784 FILLER_0_18_108
*785 FILLER_0_18_120
*786 FILLER_0_18_132
*787 FILLER_0_18_14
*788 FILLER_0_18_164
*789 FILLER_0_18_176
*790 FILLER_0_18_185
*791 FILLER_0_18_193
*792 FILLER_0_18_197
*793 FILLER_0_18_210
*794 FILLER_0_18_222
*795 FILLER_0_18_234
*796 FILLER_0_18_246
*797 FILLER_0_18_253
*798 FILLER_0_18_257
*799 FILLER_0_18_26
*800 FILLER_0_18_29
*801 FILLER_0_18_3
*802 FILLER_0_18_7
*803 FILLER_0_18_85
*804 FILLER_0_18_96
*805 FILLER_0_19_101
*806 FILLER_0_19_109
*807 FILLER_0_19_120
*808 FILLER_0_19_134
*809 FILLER_0_19_138
*810 FILLER_0_19_142
*811 FILLER_0_19_15
*812 FILLER_0_19_161
*813 FILLER_0_19_167
*814 FILLER_0_19_169
*815 FILLER_0_19_173
*816 FILLER_0_19_187
*817 FILLER_0_19_194
*818 FILLER_0_19_209
*819 FILLER_0_19_221
*820 FILLER_0_19_225
*821 FILLER_0_19_237
*822 FILLER_0_19_249
*823 FILLER_0_19_257
*824 FILLER_0_19_27
*825 FILLER_0_19_3
*826 FILLER_0_19_44
*827 FILLER_0_19_52
*828 FILLER_0_19_57
*829 FILLER_0_19_69
*830 FILLER_0_19_81
*831 FILLER_0_19_93
*832 FILLER_0_1_103
*833 FILLER_0_1_111
*834 FILLER_0_1_113
*835 FILLER_0_1_125
*836 FILLER_0_1_129
*837 FILLER_0_1_15
*838 FILLER_0_1_153
*839 FILLER_0_1_165
*840 FILLER_0_1_169
*841 FILLER_0_1_181
*842 FILLER_0_1_193
*843 FILLER_0_1_205
*844 FILLER_0_1_217
*845 FILLER_0_1_223
*846 FILLER_0_1_225
*847 FILLER_0_1_237
*848 FILLER_0_1_249
*849 FILLER_0_1_27
*850 FILLER_0_1_3
*851 FILLER_0_1_39
*852 FILLER_0_1_46
*853 FILLER_0_1_54
*854 FILLER_0_1_57
*855 FILLER_0_1_69
*856 FILLER_0_1_75
*857 FILLER_0_1_79
*858 FILLER_0_1_91
*859 FILLER_0_20_141
*860 FILLER_0_20_15
*861 FILLER_0_20_153
*862 FILLER_0_20_165
*863 FILLER_0_20_173
*864 FILLER_0_20_179
*865 FILLER_0_20_191
*866 FILLER_0_20_195
*867 FILLER_0_20_197
*868 FILLER_0_20_209
*869 FILLER_0_20_221
*870 FILLER_0_20_227
*871 FILLER_0_20_244
*872 FILLER_0_20_251
*873 FILLER_0_20_27
*874 FILLER_0_20_29
*875 FILLER_0_20_3
*876 FILLER_0_20_41
*877 FILLER_0_20_53
*878 FILLER_0_20_65
*879 FILLER_0_20_77
*880 FILLER_0_20_83
*881 FILLER_0_20_85
*882 FILLER_0_20_93
*883 FILLER_0_21_105
*884 FILLER_0_21_111
*885 FILLER_0_21_113
*886 FILLER_0_21_125
*887 FILLER_0_21_13
*888 FILLER_0_21_137
*889 FILLER_0_21_149
*890 FILLER_0_21_161
*891 FILLER_0_21_167
*892 FILLER_0_21_169
*893 FILLER_0_21_184
*894 FILLER_0_21_196
*895 FILLER_0_21_209
*896 FILLER_0_21_234
*897 FILLER_0_21_246
*898 FILLER_0_21_28
*899 FILLER_0_21_40
*900 FILLER_0_21_52
*901 FILLER_0_21_57
*902 FILLER_0_21_69
*903 FILLER_0_21_81
*904 FILLER_0_21_9
*905 FILLER_0_21_93
*906 FILLER_0_22_109
*907 FILLER_0_22_121
*908 FILLER_0_22_133
*909 FILLER_0_22_139
*910 FILLER_0_22_141
*911 FILLER_0_22_153
*912 FILLER_0_22_165
*913 FILLER_0_22_177
*914 FILLER_0_22_186
*915 FILLER_0_22_194
*916 FILLER_0_22_197
*917 FILLER_0_22_205
*918 FILLER_0_22_220
*919 FILLER_0_22_232
*920 FILLER_0_22_240
*921 FILLER_0_22_253
*922 FILLER_0_22_257
*923 FILLER_0_22_29
*924 FILLER_0_22_3
*925 FILLER_0_22_49
*926 FILLER_0_22_61
*927 FILLER_0_22_73
*928 FILLER_0_22_85
*929 FILLER_0_22_97
*930 FILLER_0_23_113
*931 FILLER_0_23_135
*932 FILLER_0_23_15
*933 FILLER_0_23_169
*934 FILLER_0_23_192
*935 FILLER_0_23_204
*936 FILLER_0_23_210
*937 FILLER_0_23_22
*938 FILLER_0_23_222
*939 FILLER_0_23_225
*940 FILLER_0_23_237
*941 FILLER_0_23_249
*942 FILLER_0_23_257
*943 FILLER_0_23_3
*944 FILLER_0_23_30
*945 FILLER_0_23_46
*946 FILLER_0_23_54
*947 FILLER_0_23_67
*948 FILLER_0_23_79
*949 FILLER_0_23_87
*950 FILLER_0_23_97
*951 FILLER_0_24_11
*952 FILLER_0_24_113
*953 FILLER_0_24_119
*954 FILLER_0_24_138
*955 FILLER_0_24_161
*956 FILLER_0_24_17
*957 FILLER_0_24_173
*958 FILLER_0_24_179
*959 FILLER_0_24_194
*960 FILLER_0_24_197
*961 FILLER_0_24_209
*962 FILLER_0_24_216
*963 FILLER_0_24_228
*964 FILLER_0_24_240
*965 FILLER_0_24_25
*966 FILLER_0_24_253
*967 FILLER_0_24_257
*968 FILLER_0_24_29
*969 FILLER_0_24_3
*970 FILLER_0_24_37
*971 FILLER_0_24_50
*972 FILLER_0_24_56
*973 FILLER_0_24_60
*974 FILLER_0_24_80
*975 FILLER_0_24_94
*976 FILLER_0_25_104
*977 FILLER_0_25_109
*978 FILLER_0_25_113
*979 FILLER_0_25_12
*980 FILLER_0_25_125
*981 FILLER_0_25_137
*982 FILLER_0_25_145
*983 FILLER_0_25_149
*984 FILLER_0_25_161
*985 FILLER_0_25_167
*986 FILLER_0_25_169
*987 FILLER_0_25_181
*988 FILLER_0_25_190
*989 FILLER_0_25_202
*990 FILLER_0_25_206
*991 FILLER_0_25_218
*992 FILLER_0_25_225
*993 FILLER_0_25_237
*994 FILLER_0_25_24
*995 FILLER_0_25_255
*996 FILLER_0_25_3
*997 FILLER_0_25_36
*998 FILLER_0_25_48
*999 FILLER_0_25_62
*1000 FILLER_0_25_74
*1001 FILLER_0_25_80
*1002 FILLER_0_25_90
*1003 FILLER_0_26_105
*1004 FILLER_0_26_111
*1005 FILLER_0_26_123
*1006 FILLER_0_26_135
*1007 FILLER_0_26_139
*1008 FILLER_0_26_141
*1009 FILLER_0_26_15
*1010 FILLER_0_26_153
*1011 FILLER_0_26_165
*1012 FILLER_0_26_186
*1013 FILLER_0_26_194
*1014 FILLER_0_26_197
*1015 FILLER_0_26_216
*1016 FILLER_0_26_228
*1017 FILLER_0_26_240
*1018 FILLER_0_26_257
*1019 FILLER_0_26_27
*1020 FILLER_0_26_29
*1021 FILLER_0_26_3
*1022 FILLER_0_26_41
*1023 FILLER_0_26_53
*1024 FILLER_0_26_65
*1025 FILLER_0_26_77
*1026 FILLER_0_26_85
*1027 FILLER_0_26_97
*1028 FILLER_0_27_101
*1029 FILLER_0_27_109
*1030 FILLER_0_27_113
*1031 FILLER_0_27_125
*1032 FILLER_0_27_137
*1033 FILLER_0_27_149
*1034 FILLER_0_27_157
*1035 FILLER_0_27_166
*1036 FILLER_0_27_172
*1037 FILLER_0_27_184
*1038 FILLER_0_27_19
*1039 FILLER_0_27_196
*1040 FILLER_0_27_217
*1041 FILLER_0_27_223
*1042 FILLER_0_27_234
*1043 FILLER_0_27_242
*1044 FILLER_0_27_249
*1045 FILLER_0_27_257
*1046 FILLER_0_27_31
*1047 FILLER_0_27_35
*1048 FILLER_0_27_40
*1049 FILLER_0_27_52
*1050 FILLER_0_27_57
*1051 FILLER_0_27_69
*1052 FILLER_0_27_7
*1053 FILLER_0_27_81
*1054 FILLER_0_27_89
*1055 FILLER_0_28_103
*1056 FILLER_0_28_115
*1057 FILLER_0_28_123
*1058 FILLER_0_28_128
*1059 FILLER_0_28_141
*1060 FILLER_0_28_164
*1061 FILLER_0_28_176
*1062 FILLER_0_28_188
*1063 FILLER_0_28_197
*1064 FILLER_0_28_205
*1065 FILLER_0_28_210
*1066 FILLER_0_28_222
*1067 FILLER_0_28_230
*1068 FILLER_0_28_248
*1069 FILLER_0_28_253
*1070 FILLER_0_28_257
*1071 FILLER_0_28_29
*1072 FILLER_0_28_3
*1073 FILLER_0_28_52
*1074 FILLER_0_28_64
*1075 FILLER_0_28_72
*1076 FILLER_0_28_82
*1077 FILLER_0_28_91
*1078 FILLER_0_29_100
*1079 FILLER_0_29_109
*1080 FILLER_0_29_113
*1081 FILLER_0_29_138
*1082 FILLER_0_29_142
*1083 FILLER_0_29_165
*1084 FILLER_0_29_169
*1085 FILLER_0_29_184
*1086 FILLER_0_29_196
*1087 FILLER_0_29_21
*1088 FILLER_0_29_211
*1089 FILLER_0_29_223
*1090 FILLER_0_29_225
*1091 FILLER_0_29_237
*1092 FILLER_0_29_249
*1093 FILLER_0_29_3
*1094 FILLER_0_29_33
*1095 FILLER_0_29_49
*1096 FILLER_0_29_55
*1097 FILLER_0_29_70
*1098 FILLER_0_29_82
*1099 FILLER_0_29_94
*1100 FILLER_0_2_114
*1101 FILLER_0_2_126
*1102 FILLER_0_2_138
*1103 FILLER_0_2_141
*1104 FILLER_0_2_153
*1105 FILLER_0_2_165
*1106 FILLER_0_2_177
*1107 FILLER_0_2_189
*1108 FILLER_0_2_195
*1109 FILLER_0_2_197
*1110 FILLER_0_2_209
*1111 FILLER_0_2_21
*1112 FILLER_0_2_221
*1113 FILLER_0_2_233
*1114 FILLER_0_2_245
*1115 FILLER_0_2_251
*1116 FILLER_0_2_253
*1117 FILLER_0_2_27
*1118 FILLER_0_2_29
*1119 FILLER_0_2_52
*1120 FILLER_0_2_64
*1121 FILLER_0_2_70
*1122 FILLER_0_2_78
*1123 FILLER_0_2_85
*1124 FILLER_0_2_9
*1125 FILLER_0_30_120
*1126 FILLER_0_30_133
*1127 FILLER_0_30_139
*1128 FILLER_0_30_141
*1129 FILLER_0_30_153
*1130 FILLER_0_30_165
*1131 FILLER_0_30_173
*1132 FILLER_0_30_192
*1133 FILLER_0_30_20
*1134 FILLER_0_30_205
*1135 FILLER_0_30_217
*1136 FILLER_0_30_230
*1137 FILLER_0_30_242
*1138 FILLER_0_30_250
*1139 FILLER_0_30_253
*1140 FILLER_0_30_257
*1141 FILLER_0_30_29
*1142 FILLER_0_30_3
*1143 FILLER_0_30_41
*1144 FILLER_0_30_62
*1145 FILLER_0_30_74
*1146 FILLER_0_30_82
*1147 FILLER_0_30_85
*1148 FILLER_0_31_108
*1149 FILLER_0_31_113
*1150 FILLER_0_31_125
*1151 FILLER_0_31_137
*1152 FILLER_0_31_149
*1153 FILLER_0_31_15
*1154 FILLER_0_31_161
*1155 FILLER_0_31_167
*1156 FILLER_0_31_169
*1157 FILLER_0_31_181
*1158 FILLER_0_31_193
*1159 FILLER_0_31_207
*1160 FILLER_0_31_219
*1161 FILLER_0_31_223
*1162 FILLER_0_31_238
*1163 FILLER_0_31_246
*1164 FILLER_0_31_27
*1165 FILLER_0_31_3
*1166 FILLER_0_31_39
*1167 FILLER_0_31_51
*1168 FILLER_0_31_55
*1169 FILLER_0_31_57
*1170 FILLER_0_31_70
*1171 FILLER_0_31_89
*1172 FILLER_0_31_97
*1173 FILLER_0_32_109
*1174 FILLER_0_32_121
*1175 FILLER_0_32_133
*1176 FILLER_0_32_139
*1177 FILLER_0_32_141
*1178 FILLER_0_32_15
*1179 FILLER_0_32_165
*1180 FILLER_0_32_177
*1181 FILLER_0_32_189
*1182 FILLER_0_32_195
*1183 FILLER_0_32_197
*1184 FILLER_0_32_209
*1185 FILLER_0_32_221
*1186 FILLER_0_32_239
*1187 FILLER_0_32_246
*1188 FILLER_0_32_253
*1189 FILLER_0_32_257
*1190 FILLER_0_32_27
*1191 FILLER_0_32_29
*1192 FILLER_0_32_3
*1193 FILLER_0_32_41
*1194 FILLER_0_32_49
*1195 FILLER_0_32_56
*1196 FILLER_0_32_64
*1197 FILLER_0_32_68
*1198 FILLER_0_32_80
*1199 FILLER_0_32_85
*1200 FILLER_0_32_97
*1201 FILLER_0_33_108
*1202 FILLER_0_33_113
*1203 FILLER_0_33_125
*1204 FILLER_0_33_132
*1205 FILLER_0_33_144
*1206 FILLER_0_33_15
*1207 FILLER_0_33_159
*1208 FILLER_0_33_167
*1209 FILLER_0_33_169
*1210 FILLER_0_33_177
*1211 FILLER_0_33_185
*1212 FILLER_0_33_197
*1213 FILLER_0_33_211
*1214 FILLER_0_33_215
*1215 FILLER_0_33_219
*1216 FILLER_0_33_223
*1217 FILLER_0_33_225
*1218 FILLER_0_33_242
*1219 FILLER_0_33_250
*1220 FILLER_0_33_3
*1221 FILLER_0_33_37
*1222 FILLER_0_33_46
*1223 FILLER_0_33_54
*1224 FILLER_0_33_57
*1225 FILLER_0_33_61
*1226 FILLER_0_33_71
*1227 FILLER_0_33_79
*1228 FILLER_0_33_84
*1229 FILLER_0_33_96
*1230 FILLER_0_34_100
*1231 FILLER_0_34_138
*1232 FILLER_0_34_141
*1233 FILLER_0_34_15
*1234 FILLER_0_34_153
*1235 FILLER_0_34_166
*1236 FILLER_0_34_178
*1237 FILLER_0_34_195
*1238 FILLER_0_34_207
*1239 FILLER_0_34_219
*1240 FILLER_0_34_231
*1241 FILLER_0_34_242
*1242 FILLER_0_34_250
*1243 FILLER_0_34_253
*1244 FILLER_0_34_257
*1245 FILLER_0_34_27
*1246 FILLER_0_34_29
*1247 FILLER_0_34_3
*1248 FILLER_0_34_54
*1249 FILLER_0_34_66
*1250 FILLER_0_34_83
*1251 FILLER_0_34_85
*1252 FILLER_0_34_96
*1253 FILLER_0_35_113
*1254 FILLER_0_35_125
*1255 FILLER_0_35_13
*1256 FILLER_0_35_137
*1257 FILLER_0_35_149
*1258 FILLER_0_35_169
*1259 FILLER_0_35_181
*1260 FILLER_0_35_187
*1261 FILLER_0_35_199
*1262 FILLER_0_35_211
*1263 FILLER_0_35_220
*1264 FILLER_0_35_225
*1265 FILLER_0_35_233
*1266 FILLER_0_35_25
*1267 FILLER_0_35_250
*1268 FILLER_0_35_37
*1269 FILLER_0_35_49
*1270 FILLER_0_35_55
*1271 FILLER_0_35_57
*1272 FILLER_0_35_69
*1273 FILLER_0_35_76
*1274 FILLER_0_35_88
*1275 FILLER_0_36_103
*1276 FILLER_0_36_115
*1277 FILLER_0_36_127
*1278 FILLER_0_36_135
*1279 FILLER_0_36_139
*1280 FILLER_0_36_147
*1281 FILLER_0_36_15
*1282 FILLER_0_36_165
*1283 FILLER_0_36_186
*1284 FILLER_0_36_194
*1285 FILLER_0_36_197
*1286 FILLER_0_36_209
*1287 FILLER_0_36_220
*1288 FILLER_0_36_241
*1289 FILLER_0_36_249
*1290 FILLER_0_36_253
*1291 FILLER_0_36_257
*1292 FILLER_0_36_27
*1293 FILLER_0_36_29
*1294 FILLER_0_36_3
*1295 FILLER_0_36_41
*1296 FILLER_0_36_47
*1297 FILLER_0_36_59
*1298 FILLER_0_36_67
*1299 FILLER_0_36_82
*1300 FILLER_0_36_91
*1301 FILLER_0_37_108
*1302 FILLER_0_37_113
*1303 FILLER_0_37_124
*1304 FILLER_0_37_130
*1305 FILLER_0_37_142
*1306 FILLER_0_37_15
*1307 FILLER_0_37_151
*1308 FILLER_0_37_163
*1309 FILLER_0_37_167
*1310 FILLER_0_37_179
*1311 FILLER_0_37_191
*1312 FILLER_0_37_198
*1313 FILLER_0_37_216
*1314 FILLER_0_37_223
*1315 FILLER_0_37_225
*1316 FILLER_0_37_239
*1317 FILLER_0_37_251
*1318 FILLER_0_37_257
*1319 FILLER_0_37_27
*1320 FILLER_0_37_3
*1321 FILLER_0_37_39
*1322 FILLER_0_37_51
*1323 FILLER_0_37_55
*1324 FILLER_0_37_60
*1325 FILLER_0_37_72
*1326 FILLER_0_37_84
*1327 FILLER_0_37_96
*1328 FILLER_0_38_105
*1329 FILLER_0_38_111
*1330 FILLER_0_38_123
*1331 FILLER_0_38_135
*1332 FILLER_0_38_139
*1333 FILLER_0_38_141
*1334 FILLER_0_38_15
*1335 FILLER_0_38_151
*1336 FILLER_0_38_163
*1337 FILLER_0_38_175
*1338 FILLER_0_38_187
*1339 FILLER_0_38_205
*1340 FILLER_0_38_217
*1341 FILLER_0_38_229
*1342 FILLER_0_38_241
*1343 FILLER_0_38_249
*1344 FILLER_0_38_253
*1345 FILLER_0_38_257
*1346 FILLER_0_38_27
*1347 FILLER_0_38_29
*1348 FILLER_0_38_3
*1349 FILLER_0_38_44
*1350 FILLER_0_38_65
*1351 FILLER_0_38_77
*1352 FILLER_0_38_83
*1353 FILLER_0_38_85
*1354 FILLER_0_38_97
*1355 FILLER_0_39_102
*1356 FILLER_0_39_111
*1357 FILLER_0_39_119
*1358 FILLER_0_39_131
*1359 FILLER_0_39_143
*1360 FILLER_0_39_15
*1361 FILLER_0_39_155
*1362 FILLER_0_39_167
*1363 FILLER_0_39_178
*1364 FILLER_0_39_190
*1365 FILLER_0_39_197
*1366 FILLER_0_39_209
*1367 FILLER_0_39_221
*1368 FILLER_0_39_225
*1369 FILLER_0_39_237
*1370 FILLER_0_39_249
*1371 FILLER_0_39_257
*1372 FILLER_0_39_27
*1373 FILLER_0_39_3
*1374 FILLER_0_39_35
*1375 FILLER_0_39_45
*1376 FILLER_0_39_53
*1377 FILLER_0_39_57
*1378 FILLER_0_39_69
*1379 FILLER_0_39_75
*1380 FILLER_0_39_85
*1381 FILLER_0_39_94
*1382 FILLER_0_3_109
*1383 FILLER_0_3_113
*1384 FILLER_0_3_124
*1385 FILLER_0_3_128
*1386 FILLER_0_3_137
*1387 FILLER_0_3_141
*1388 FILLER_0_3_145
*1389 FILLER_0_3_15
*1390 FILLER_0_3_157
*1391 FILLER_0_3_165
*1392 FILLER_0_3_176
*1393 FILLER_0_3_184
*1394 FILLER_0_3_209
*1395 FILLER_0_3_221
*1396 FILLER_0_3_225
*1397 FILLER_0_3_237
*1398 FILLER_0_3_249
*1399 FILLER_0_3_257
*1400 FILLER_0_3_27
*1401 FILLER_0_3_3
*1402 FILLER_0_3_39
*1403 FILLER_0_3_45
*1404 FILLER_0_3_52
*1405 FILLER_0_3_57
*1406 FILLER_0_3_69
*1407 FILLER_0_3_81
*1408 FILLER_0_40_116
*1409 FILLER_0_40_128
*1410 FILLER_0_40_139
*1411 FILLER_0_40_141
*1412 FILLER_0_40_149
*1413 FILLER_0_40_15
*1414 FILLER_0_40_157
*1415 FILLER_0_40_163
*1416 FILLER_0_40_168
*1417 FILLER_0_40_180
*1418 FILLER_0_40_184
*1419 FILLER_0_40_191
*1420 FILLER_0_40_195
*1421 FILLER_0_40_197
*1422 FILLER_0_40_209
*1423 FILLER_0_40_221
*1424 FILLER_0_40_233
*1425 FILLER_0_40_245
*1426 FILLER_0_40_251
*1427 FILLER_0_40_253
*1428 FILLER_0_40_257
*1429 FILLER_0_40_27
*1430 FILLER_0_40_29
*1431 FILLER_0_40_3
*1432 FILLER_0_40_41
*1433 FILLER_0_40_53
*1434 FILLER_0_40_65
*1435 FILLER_0_40_75
*1436 FILLER_0_40_83
*1437 FILLER_0_40_91
*1438 FILLER_0_40_99
*1439 FILLER_0_41_102
*1440 FILLER_0_41_110
*1441 FILLER_0_41_116
*1442 FILLER_0_41_124
*1443 FILLER_0_41_138
*1444 FILLER_0_41_162
*1445 FILLER_0_41_169
*1446 FILLER_0_41_195
*1447 FILLER_0_41_202
*1448 FILLER_0_41_21
*1449 FILLER_0_41_217
*1450 FILLER_0_41_223
*1451 FILLER_0_41_225
*1452 FILLER_0_41_237
*1453 FILLER_0_41_249
*1454 FILLER_0_41_33
*1455 FILLER_0_41_45
*1456 FILLER_0_41_53
*1457 FILLER_0_41_57
*1458 FILLER_0_41_69
*1459 FILLER_0_41_9
*1460 FILLER_0_41_90
*1461 FILLER_0_41_98
*1462 FILLER_0_42_102
*1463 FILLER_0_42_114
*1464 FILLER_0_42_124
*1465 FILLER_0_42_136
*1466 FILLER_0_42_141
*1467 FILLER_0_42_15
*1468 FILLER_0_42_153
*1469 FILLER_0_42_165
*1470 FILLER_0_42_177
*1471 FILLER_0_42_186
*1472 FILLER_0_42_194
*1473 FILLER_0_42_197
*1474 FILLER_0_42_203
*1475 FILLER_0_42_210
*1476 FILLER_0_42_222
*1477 FILLER_0_42_234
*1478 FILLER_0_42_246
*1479 FILLER_0_42_253
*1480 FILLER_0_42_257
*1481 FILLER_0_42_27
*1482 FILLER_0_42_29
*1483 FILLER_0_42_3
*1484 FILLER_0_42_41
*1485 FILLER_0_42_53
*1486 FILLER_0_42_65
*1487 FILLER_0_42_71
*1488 FILLER_0_42_83
*1489 FILLER_0_42_88
*1490 FILLER_0_42_94
*1491 FILLER_0_43_100
*1492 FILLER_0_43_113
*1493 FILLER_0_43_125
*1494 FILLER_0_43_13
*1495 FILLER_0_43_135
*1496 FILLER_0_43_139
*1497 FILLER_0_43_141
*1498 FILLER_0_43_153
*1499 FILLER_0_43_165
*1500 FILLER_0_43_175
*1501 FILLER_0_43_187
*1502 FILLER_0_43_195
*1503 FILLER_0_43_207
*1504 FILLER_0_43_219
*1505 FILLER_0_43_223
*1506 FILLER_0_43_225
*1507 FILLER_0_43_23
*1508 FILLER_0_43_233
*1509 FILLER_0_43_238
*1510 FILLER_0_43_246
*1511 FILLER_0_43_253
*1512 FILLER_0_43_257
*1513 FILLER_0_43_27
*1514 FILLER_0_43_29
*1515 FILLER_0_43_41
*1516 FILLER_0_43_53
*1517 FILLER_0_43_67
*1518 FILLER_0_43_79
*1519 FILLER_0_43_83
*1520 FILLER_0_43_85
*1521 FILLER_0_43_9
*1522 FILLER_0_43_93
*1523 FILLER_0_4_103
*1524 FILLER_0_4_111
*1525 FILLER_0_4_123
*1526 FILLER_0_4_139
*1527 FILLER_0_4_15
*1528 FILLER_0_4_156
*1529 FILLER_0_4_168
*1530 FILLER_0_4_176
*1531 FILLER_0_4_181
*1532 FILLER_0_4_189
*1533 FILLER_0_4_219
*1534 FILLER_0_4_231
*1535 FILLER_0_4_243
*1536 FILLER_0_4_251
*1537 FILLER_0_4_253
*1538 FILLER_0_4_257
*1539 FILLER_0_4_27
*1540 FILLER_0_4_29
*1541 FILLER_0_4_3
*1542 FILLER_0_4_41
*1543 FILLER_0_4_53
*1544 FILLER_0_4_65
*1545 FILLER_0_4_73
*1546 FILLER_0_4_77
*1547 FILLER_0_4_83
*1548 FILLER_0_4_85
*1549 FILLER_0_4_97
*1550 FILLER_0_5_101
*1551 FILLER_0_5_105
*1552 FILLER_0_5_111
*1553 FILLER_0_5_113
*1554 FILLER_0_5_125
*1555 FILLER_0_5_137
*1556 FILLER_0_5_144
*1557 FILLER_0_5_15
*1558 FILLER_0_5_155
*1559 FILLER_0_5_167
*1560 FILLER_0_5_169
*1561 FILLER_0_5_181
*1562 FILLER_0_5_193
*1563 FILLER_0_5_205
*1564 FILLER_0_5_217
*1565 FILLER_0_5_223
*1566 FILLER_0_5_225
*1567 FILLER_0_5_237
*1568 FILLER_0_5_249
*1569 FILLER_0_5_257
*1570 FILLER_0_5_27
*1571 FILLER_0_5_3
*1572 FILLER_0_5_39
*1573 FILLER_0_5_47
*1574 FILLER_0_5_57
*1575 FILLER_0_5_69
*1576 FILLER_0_5_81
*1577 FILLER_0_5_93
*1578 FILLER_0_6_102
*1579 FILLER_0_6_112
*1580 FILLER_0_6_124
*1581 FILLER_0_6_136
*1582 FILLER_0_6_141
*1583 FILLER_0_6_15
*1584 FILLER_0_6_153
*1585 FILLER_0_6_165
*1586 FILLER_0_6_177
*1587 FILLER_0_6_189
*1588 FILLER_0_6_19
*1589 FILLER_0_6_195
*1590 FILLER_0_6_204
*1591 FILLER_0_6_212
*1592 FILLER_0_6_237
*1593 FILLER_0_6_249
*1594 FILLER_0_6_253
*1595 FILLER_0_6_257
*1596 FILLER_0_6_26
*1597 FILLER_0_6_29
*1598 FILLER_0_6_3
*1599 FILLER_0_6_41
*1600 FILLER_0_6_60
*1601 FILLER_0_6_72
*1602 FILLER_0_6_76
*1603 FILLER_0_6_83
*1604 FILLER_0_6_94
*1605 FILLER_0_7_102
*1606 FILLER_0_7_113
*1607 FILLER_0_7_124
*1608 FILLER_0_7_136
*1609 FILLER_0_7_147
*1610 FILLER_0_7_15
*1611 FILLER_0_7_159
*1612 FILLER_0_7_167
*1613 FILLER_0_7_176
*1614 FILLER_0_7_188
*1615 FILLER_0_7_200
*1616 FILLER_0_7_212
*1617 FILLER_0_7_225
*1618 FILLER_0_7_231
*1619 FILLER_0_7_24
*1620 FILLER_0_7_253
*1621 FILLER_0_7_257
*1622 FILLER_0_7_3
*1623 FILLER_0_7_37
*1624 FILLER_0_7_45
*1625 FILLER_0_7_54
*1626 FILLER_0_7_64
*1627 FILLER_0_7_72
*1628 FILLER_0_8_105
*1629 FILLER_0_8_117
*1630 FILLER_0_8_129
*1631 FILLER_0_8_141
*1632 FILLER_0_8_15
*1633 FILLER_0_8_160
*1634 FILLER_0_8_169
*1635 FILLER_0_8_19
*1636 FILLER_0_8_201
*1637 FILLER_0_8_213
*1638 FILLER_0_8_225
*1639 FILLER_0_8_237
*1640 FILLER_0_8_249
*1641 FILLER_0_8_253
*1642 FILLER_0_8_257
*1643 FILLER_0_8_26
*1644 FILLER_0_8_3
*1645 FILLER_0_8_32
*1646 FILLER_0_8_44
*1647 FILLER_0_8_55
*1648 FILLER_0_8_67
*1649 FILLER_0_8_71
*1650 FILLER_0_8_81
*1651 FILLER_0_8_85
*1652 FILLER_0_8_97
*1653 FILLER_0_9_105
*1654 FILLER_0_9_111
*1655 FILLER_0_9_113
*1656 FILLER_0_9_125
*1657 FILLER_0_9_137
*1658 FILLER_0_9_149
*1659 FILLER_0_9_161
*1660 FILLER_0_9_167
*1661 FILLER_0_9_178
*1662 FILLER_0_9_19
*1663 FILLER_0_9_190
*1664 FILLER_0_9_198
*1665 FILLER_0_9_210
*1666 FILLER_0_9_222
*1667 FILLER_0_9_225
*1668 FILLER_0_9_229
*1669 FILLER_0_9_241
*1670 FILLER_0_9_31
*1671 FILLER_0_9_43
*1672 FILLER_0_9_55
*1673 FILLER_0_9_57