*SPEF "ieee 1481-1999"
*DESIGN "csa"
*DATE "11:11:11 Fri 11 11, 1111"
*VENDOR "OpenRCX"
*PROGRAM "Parallel Extraction"
*VERSION "1.0"
*DESIGN_FLOW "NAME_SCOPE LOCAL" "PIN_CAP NONE"
*DIVIDER /
*DELIMITER :
*BUS_DELIMITER []
*T_UNIT 1 NS
*C_UNIT 1 PF
*R_UNIT 1 OHM
*L_UNIT 1 HENRY

*NAME_MAP
*1 A[0]
*2 A[10]
*3 A[11]
*4 A[12]
*5 A[13]
*6 A[14]
*7 A[15]
*8 A[1]
*9 A[2]
*10 A[3]
*11 A[4]
*12 A[5]
*13 A[6]
*14 A[7]
*15 A[8]
*16 A[9]
*17 B[0]
*18 B[10]
*19 B[11]
*20 B[12]
*21 B[13]
*22 B[14]
*23 B[15]
*24 B[1]
*25 B[2]
*26 B[3]
*27 B[4]
*28 B[5]
*29 B[6]
*30 B[7]
*31 B[8]
*32 B[9]
*33 C[0]
*34 C[10]
*35 C[11]
*36 C[12]
*37 C[13]
*38 C[14]
*39 C[15]
*40 C[1]
*41 C[2]
*42 C[3]
*43 C[4]
*44 C[5]
*45 C[6]
*46 C[7]
*47 C[8]
*48 C[9]
*49 Carry[0]
*50 Carry[10]
*51 Carry[11]
*52 Carry[12]
*53 Carry[13]
*54 Carry[14]
*55 Carry[15]
*56 Carry[1]
*57 Carry[2]
*58 Carry[3]
*59 Carry[4]
*60 Carry[5]
*61 Carry[6]
*62 Carry[7]
*63 Carry[8]
*64 Carry[9]
*65 Sum[0]
*66 Sum[10]
*67 Sum[11]
*68 Sum[12]
*69 Sum[13]
*70 Sum[14]
*71 Sum[15]
*72 Sum[1]
*73 Sum[2]
*74 Sum[3]
*75 Sum[4]
*76 Sum[5]
*77 Sum[6]
*78 Sum[7]
*79 Sum[8]
*80 Sum[9]
*83 _00_
*84 _01_
*85 _02_
*86 _03_
*87 _04_
*88 _05_
*89 _06_
*90 _07_
*91 _08_
*92 _09_
*93 _10_
*94 _11_
*95 _12_
*96 _13_
*97 _14_
*98 _15_
*99 _16_
*100 _17_
*101 _18_
*102 _19_
*103 _20_
*104 _21_
*105 _22_
*106 _23_
*107 _24_
*108 _25_
*109 _26_
*110 _27_
*111 _28_
*112 _29_
*113 _30_
*114 _31_
*115 net1
*116 net10
*117 net11
*118 net12
*119 net13
*120 net14
*121 net15
*122 net16
*123 net17
*124 net18
*125 net19
*126 net2
*127 net20
*128 net21
*129 net22
*130 net23
*131 net24
*132 net25
*133 net26
*134 net27
*135 net28
*136 net29
*137 net3
*138 net30
*139 net31
*140 net32
*141 net33
*142 net34
*143 net35
*144 net36
*145 net37
*146 net38
*147 net39
*148 net4
*149 net40
*150 net41
*151 net42
*152 net43
*153 net44
*154 net45
*155 net46
*156 net47
*157 net48
*158 net49
*159 net5
*160 net50
*161 net51
*162 net52
*163 net53
*164 net54
*165 net55
*166 net56
*167 net57
*168 net58
*169 net59
*170 net6
*171 net60
*172 net61
*173 net62
*174 net63
*175 net64
*176 net65
*177 net66
*178 net67
*179 net68
*180 net69
*181 net7
*182 net70
*183 net71
*184 net72
*185 net73
*186 net74
*187 net75
*188 net76
*189 net77
*190 net78
*191 net79
*192 net8
*193 net80
*194 net9
*195 FILLER_0_0_107
*196 FILLER_0_0_29
*197 FILLER_0_0_3
*198 FILLER_0_0_37
*199 FILLER_0_0_44
*200 FILLER_0_0_48
*201 FILLER_0_0_57
*202 FILLER_0_0_70
*203 FILLER_0_0_76
*204 FILLER_0_0_83
*205 FILLER_0_0_85
*206 FILLER_0_0_93
*207 FILLER_0_10_12
*208 FILLER_0_10_24
*209 FILLER_0_10_29
*210 FILLER_0_10_41
*211 FILLER_0_10_53
*212 FILLER_0_10_65
*213 FILLER_0_10_77
*214 FILLER_0_10_83
*215 FILLER_0_10_85
*216 FILLER_0_10_97
*217 FILLER_0_11_22
*218 FILLER_0_11_46
*219 FILLER_0_11_54
*220 FILLER_0_11_57
*221 FILLER_0_11_6
*222 FILLER_0_11_61
*223 FILLER_0_11_69
*224 FILLER_0_11_81
*225 FILLER_0_11_93
*226 FILLER_0_12_14
*227 FILLER_0_12_26
*228 FILLER_0_12_3
*229 FILLER_0_12_43
*230 FILLER_0_12_55
*231 FILLER_0_12_65
*232 FILLER_0_12_7
*233 FILLER_0_12_77
*234 FILLER_0_12_83
*235 FILLER_0_12_85
*236 FILLER_0_12_97
*237 FILLER_0_13_100
*238 FILLER_0_13_107
*239 FILLER_0_13_12
*240 FILLER_0_13_24
*241 FILLER_0_13_36
*242 FILLER_0_13_48
*243 FILLER_0_13_57
*244 FILLER_0_13_61
*245 FILLER_0_13_74
*246 FILLER_0_13_86
*247 FILLER_0_13_92
*248 FILLER_0_14_16
*249 FILLER_0_14_29
*250 FILLER_0_14_41
*251 FILLER_0_14_53
*252 FILLER_0_14_65
*253 FILLER_0_14_77
*254 FILLER_0_14_83
*255 FILLER_0_14_9
*256 FILLER_0_14_92
*257 FILLER_0_15_108
*258 FILLER_0_15_24
*259 FILLER_0_15_42
*260 FILLER_0_15_54
*261 FILLER_0_15_57
*262 FILLER_0_15_69
*263 FILLER_0_15_81
*264 FILLER_0_15_9
*265 FILLER_0_16_101
*266 FILLER_0_16_13
*267 FILLER_0_16_27
*268 FILLER_0_16_29
*269 FILLER_0_16_44
*270 FILLER_0_16_52
*271 FILLER_0_16_64
*272 FILLER_0_16_76
*273 FILLER_0_16_80
*274 FILLER_0_16_85
*275 FILLER_0_17_100
*276 FILLER_0_17_107
*277 FILLER_0_17_27
*278 FILLER_0_17_41
*279 FILLER_0_17_51
*280 FILLER_0_17_55
*281 FILLER_0_17_69
*282 FILLER_0_1_105
*283 FILLER_0_1_29
*284 FILLER_0_1_3
*285 FILLER_0_1_44
*286 FILLER_0_1_53
*287 FILLER_0_1_57
*288 FILLER_0_1_69
*289 FILLER_0_1_79
*290 FILLER_0_1_85
*291 FILLER_0_2_13
*292 FILLER_0_2_27
*293 FILLER_0_2_29
*294 FILLER_0_2_36
*295 FILLER_0_2_48
*296 FILLER_0_2_56
*297 FILLER_0_2_64
*298 FILLER_0_2_76
*299 FILLER_0_2_85
*300 FILLER_0_2_93
*301 FILLER_0_3_16
*302 FILLER_0_3_28
*303 FILLER_0_3_40
*304 FILLER_0_3_52
*305 FILLER_0_3_57
*306 FILLER_0_3_61
*307 FILLER_0_3_75
*308 FILLER_0_3_87
*309 FILLER_0_3_91
*310 FILLER_0_3_98
*311 FILLER_0_4_105
*312 FILLER_0_4_21
*313 FILLER_0_4_27
*314 FILLER_0_4_29
*315 FILLER_0_4_37
*316 FILLER_0_4_47
*317 FILLER_0_4_59
*318 FILLER_0_4_67
*319 FILLER_0_4_76
*320 FILLER_0_4_85
*321 FILLER_0_4_9
*322 FILLER_0_5_103
*323 FILLER_0_5_19
*324 FILLER_0_5_31
*325 FILLER_0_5_48
*326 FILLER_0_5_57
*327 FILLER_0_5_69
*328 FILLER_0_5_81
*329 FILLER_0_5_9
*330 FILLER_0_5_93
*331 FILLER_0_6_105
*332 FILLER_0_6_24
*333 FILLER_0_6_29
*334 FILLER_0_6_3
*335 FILLER_0_6_38
*336 FILLER_0_6_50
*337 FILLER_0_6_62
*338 FILLER_0_6_74
*339 FILLER_0_6_82
*340 FILLER_0_6_85
*341 FILLER_0_6_97
*342 FILLER_0_7_105
*343 FILLER_0_7_21
*344 FILLER_0_7_33
*345 FILLER_0_7_45
*346 FILLER_0_7_49
*347 FILLER_0_7_63
*348 FILLER_0_7_75
*349 FILLER_0_7_87
*350 FILLER_0_7_9
*351 FILLER_0_7_99
*352 FILLER_0_8_106
*353 FILLER_0_8_15
*354 FILLER_0_8_27
*355 FILLER_0_8_29
*356 FILLER_0_8_3
*357 FILLER_0_8_41
*358 FILLER_0_8_49
*359 FILLER_0_8_64
*360 FILLER_0_8_76
*361 FILLER_0_8_98
*362 FILLER_0_9_100
*363 FILLER_0_9_18
*364 FILLER_0_9_30
*365 FILLER_0_9_42
*366 FILLER_0_9_54
*367 FILLER_0_9_57
*368 FILLER_0_9_6
*369 FILLER_0_9_69
*370 FILLER_0_9_81
*371 PHY_0
*372 PHY_1
*373 PHY_10
*374 PHY_11
*375 PHY_12
*376 PHY_13
*377 PHY_14
*378 PHY_15
*379 PHY_16
*380 PHY_17
*381 PHY_18
*382 PHY_19
*383 PHY_2
*384 PHY_20
*385 PHY_21
*386 PHY_22
*387 PHY_23
*388 PHY_24
*389 PHY_25
*390 PHY_26
*391 PHY_27
*392 PHY_28
*393 PHY_29
*394 PHY_3
*395 PHY_30
*396 PHY_31
*397 PHY_32
*398 PHY_33
*399 PHY_34
*400 PHY_35
*401 PHY_4
*402 PHY_5
*403 PHY_6
*404 PHY_7
*405 PHY_8
*406 PHY_9
*407 TAP_36
*408 TAP_37
*409 TAP_38
*410 TAP_39
*411 TAP_40
*412 TAP_41
*413 TAP_42
*414 TAP_43
*415 TAP_44
*416 TAP_45
*417 TAP_46
*418 TAP_47
*419 TAP_48
*420 TAP_49
*421 TAP_50
*422 TAP_51
*423 TAP_52
*424 TAP_53
*425 TAP_54
*426 TAP_55
*427 TAP_56
*428 TAP_57
*429 TAP_58
*430 TAP_59
*431 TAP_60
*432 TAP_61
*433 TAP_62
*434 TAP_63
*435 TAP_64
*436 TAP_65
*437 _32_
*438 _33_
*439 _34_
*440 _35_
*441 _36_
*442 _37_
*443 _38_
*444 _39_
*445 _40_
*446 _41_
*447 _42_
*448 _43_
*449 _44_
*450 _45_
*451 _46_
*452 _47_
*453 _48_
*454 _49_
*455 _50_
*456 _51_
*457 _52_
*458 _53_
*459 _54_
*460 _55_
*461 _56_
*462 _57_
*463 _58_
*464 _59_
*465 _60_
*466 _61_
*467 _62_
*468 _63_
*469 _64_
*470 _65_
*471 _66_
*472 _67_
*473 _68_
*474 _69_
*475 _70_
*476 _71_
*477 _72_
*478 _73_
*479 _74_
*480 _75_
*481 _76_
*482 _77_
*483 _78_
*484 _79_
*485 _80_
*486 _81_
*487 _82_
*488 _83_
*489 _84_
*490 _85_
*491 _86_
*492 _87_
*493 _88_
*494 _89_
*495 _90_
*496 _91_
*497 _92_
*498 _93_
*499 _94_
*500 _95_
*501 input1
*502 input10
*503 input11
*504 input12
*505 input13
*506 input14
*507 input15
*508 input16
*509 input17
*510 input18
*511 input19
*512 input2
*513 input20
*514 input21
*515 input22
*516 input23
*517 input24
*518 input25
*519 input26
*520 input27
*521 input28
*522 input29
*523 input3
*524 input30
*525 input31
*526 input32
*527 input33
*528 input34
*529 input35
*530 input36
*531 input37
*532 input38
*533 input39
*534 input4
*535 input40
*536 input41
*537 input42
*538 input43
*539 input44
*540 input45
*541 input46
*542 input47
*543 input48
*544 input5
*545 input6
*546 input7
*547 input8
*548 input9
*549 output49
*550 output50
*551 output51
*552 output52
*553 output53
*554 output54
*555 output55
*556 output56
*557 output57
*558 output58
*559 output59
*560 output60
*561 output61
*562 output62
*563 output63
*564 output64
*565 output65
*566 output66
*567 output67
*568 output68
*569 output69
*570 output70
*571 output71
*572 output72
*573 output73
*574 output74
*575 output75
*576 output76
*577 output77
*578 output78
*579 output79
*580 output80

*PORTS
A[0] I
A[10] I
A[11] I
A[12] I
A[13] I
A[14] I
A[15] I
A[1] I
A[2] I
A[3] I
A[4] I
A[5] I
A[6] I
A[7] I
A[8] I
A[9] I
B[0] I
B[10] I
B[11] I
B[12] I
B[13] I
B[14] I
B[15] I
B[1] I
B[2] I
B[3] I
B[4] I
B[5] I
B[6] I
B[7] I
B[8] I
B[9] I
C[0] I
C[10] I
C[11] I
C[12] I
C[13] I
C[14] I
C[15] I
C[1] I
C[2] I
C[3] I
C[4] I
C[5] I
C[6] I
C[7] I
C[8] I
C[9] I
Carry[0] O
Carry[10] O
Carry[11] O
Carry[12] O
Carry[13] O
Carry[14] O
Carry[15] O
Carry[1] O
Carry[2] O
Carry[3] O
Carry[4] O
Carry[5] O
Carry[6] O
Carry[7] O
Carry[8] O
Carry[9] O
Sum[0] O
Sum[10] O
Sum[11] O
Sum[12] O
Sum[13] O
Sum[14] O
Sum[15] O
Sum[1] O
Sum[2] O
Sum[3] O
Sum[4] O
Sum[5] O
Sum[6] O
Sum[7] O
Sum[8] O
Sum[9] O

*D_NET *1 0.00181114
*CONN
*P A[0] I
*I *501:A I *D sky130_fd_sc_hd__buf_1
*CAP
1 A[0] 0.000436841
2 *501:A 0.000436841
3 *501:A Carry[5] 0.000456803
4 *501:A Sum[12] 6.52181e-05
5 *501:A *495:A1 1.47256e-05
6 *501:A *495:B1 4.66108e-05
7 *501:A *532:A 0
8 *501:A *546:A 0.000277003
9 *501:A *148:18 7.70938e-05
*RES
1 A[0] *501:A 14.76 
*END

*D_NET *2 0.00136052
*CONN
*P A[10] I
*I *512:A I *D sky130_fd_sc_hd__buf_1
*CAP
1 A[10] 0.000629376
2 *512:A 0.000629376
3 *512:A Carry[11] 0
4 *512:A *547:A 0
5 *512:A *555:A 5.83121e-06
6 *512:A *126:16 2.41231e-05
7 *512:A *129:22 7.1815e-05
*RES
1 A[10] *512:A 14.775 
*END

*D_NET *3 0.000716254
*CONN
*P A[11] I
*I *523:A I *D sky130_fd_sc_hd__buf_1
*CAP
1 A[11] 0.000315069
2 *523:A 0.000315069
3 *523:A Sum[9] 0
4 *523:A *516:A 4.21111e-05
5 *523:A *542:A 4.40055e-05
*RES
1 A[11] *523:A 5.97003 
*END

*D_NET *4 0.00121336
*CONN
*P A[12] I
*I *534:A I *D sky130_fd_sc_hd__dlymetal6s2s_1
*CAP
1 A[12] 0.000493292
2 *534:A 0.000493292
3 *534:A Sum[0] 0
4 *534:A Sum[6] 0
5 *534:A *505:A 0
6 *534:A *533:A 0.000143264
7 *534:A *148:18 8.35068e-05
*RES
1 A[12] *534:A 14.49 
*END

*D_NET *5 0.00167702
*CONN
*P A[13] I
*I *544:A I *D sky130_fd_sc_hd__buf_1
*CAP
1 A[13] 0.0005815
2 *544:A 0.0005815
3 *544:A Sum[8] 0.000114227
4 *544:A *458:B 0.000134123
5 *544:A *528:A 0
6 *544:A *536:A 5.07176e-05
7 *544:A *558:A 6.56052e-05
8 *544:A *566:A 3.73881e-05
9 *544:A *575:A 0.000111958
*RES
1 A[13] *544:A 11.1196 
*END

*D_NET *6 0.00221189
*CONN
*P A[14] I
*I *545:A I *D sky130_fd_sc_hd__buf_1
*CAP
1 A[14] 0.000650309
2 *545:A 0.000650309
3 *545:A Sum[0] 0.000259099
4 *545:A *505:A 3.17161e-05
5 *545:A *514:A 8.52883e-05
6 *545:A *522:A 0.000109232
7 *545:A *524:A 6.3023e-05
8 *545:A *119:12 7.06865e-05
9 *545:A *155:14 0.000281354
10 *545:A *170:22 1.08758e-05
*RES
1 A[14] *545:A 14.5616 
*END

*D_NET *7 0.00386067
*CONN
*P A[15] I
*I *546:A I *D sky130_fd_sc_hd__dlymetal6s2s_1
*CAP
1 A[15] 0.00121632
2 *546:A 0.00121632
3 *546:A Carry[12] 0.000387643
4 *546:A *464:B 5.13029e-05
5 *546:A *532:A 0
6 *546:A *552:A 0.000139245
7 *546:A *568:A 0.000150629
8 *546:A *124:10 8.51377e-05
9 *546:A *148:18 0
10 *546:A *181:16 0.00033706
11 *501:A *546:A 0.000277003
*RES
1 A[15] *546:A 21.689 
*END

*D_NET *8 0.00102376
*CONN
*P A[1] I
*I *547:A I *D sky130_fd_sc_hd__buf_1
*CAP
1 A[1] 0.000500313
2 *547:A 0.000500313
3 *547:A *526:A 0
4 *547:A *126:16 2.31388e-05
5 *512:A *547:A 0
*RES
1 A[1] *547:A 12.495 
*END

*D_NET *9 0.000480926
*CONN
*P A[2] I
*I *548:A I *D sky130_fd_sc_hd__dlymetal6s2s_1
*CAP
1 A[2] 0.000163278
2 *548:A 0.000163278
3 *548:A Carry[13] 8.03844e-05
4 *548:A Sum[7] 3.6993e-05
5 *548:A *543:A 3.6993e-05
*RES
1 A[2] *548:A 6.38543 
*END

*D_NET *10 0.000840148
*CONN
*P A[3] I
*I *502:A I *D sky130_fd_sc_hd__buf_1
*CAP
1 A[3] 0.000362749
2 *502:A 0.000362749
3 *502:A Carry[8] 0
4 *502:A *527:A 0
5 *502:A *560:A 0
6 *502:A *148:18 0.000114651
*RES
1 A[3] *502:A 10.455 
*END

*D_NET *11 0.000551497
*CONN
*P A[4] I
*I *503:A I *D sky130_fd_sc_hd__buf_1
*CAP
1 A[4] 0.000239754
2 *503:A 0.000239754
3 *503:A Carry[4] 3.59949e-05
4 *503:A *530:A 3.59949e-05
5 *503:A *559:A 0
*RES
1 A[4] *503:A 5.61177 
*END

*D_NET *12 0.00132204
*CONN
*P A[5] I
*I *504:A I *D sky130_fd_sc_hd__buf_1
*CAP
1 A[5] 0.000551292
2 *504:A 0.000551292
3 *504:A Carry[10] 4.8854e-05
4 *504:A *518:A 0
5 *504:A *540:A 0
6 *504:A *550:A 9.12494e-06
7 *504:A *579:A 0.000161474
*RES
1 A[5] *504:A 13.98 
*END

*D_NET *13 0.00148881
*CONN
*P A[6] I
*I *505:A I *D sky130_fd_sc_hd__buf_1
*CAP
1 A[6] 0.000421733
2 *505:A 0.000421733
3 *505:A Sum[0] 0.000104673
4 *505:A *522:A 0.000508954
5 *534:A *505:A 0
6 *545:A *505:A 3.17161e-05
*RES
1 A[6] *505:A 11.1883 
*END

*D_NET *14 0.000672352
*CONN
*P A[7] I
*I *506:A I *D sky130_fd_sc_hd__buf_1
*CAP
1 A[7] 0.00029346
2 *506:A 0.00029346
3 *506:A *514:A 0
4 *506:A *516:A 4.42044e-05
5 *506:A *541:A 4.12285e-05
6 *506:A *155:14 0
*RES
1 A[7] *506:A 7.7337 
*END

*D_NET *15 0.00303343
*CONN
*P A[8] I
*I *507:A I *D sky130_fd_sc_hd__buf_1
*CAP
1 A[8] 0.00100741
2 *507:A 0.00100741
3 *507:A Carry[1] 2.20014e-05
4 *507:A Carry[2] 0
5 *507:A Sum[2] 1.50487e-05
6 *507:A Sum[3] 0.000123961
7 *507:A *488:A1 8.70256e-05
8 *507:A *515:A 0.000201984
9 *507:A *521:A 0.000201952
10 *507:A *535:A 0.000158536
11 *507:A *556:A 0.000122801
12 *507:A *574:A 8.52939e-05
*RES
1 A[8] *507:A 27.145 
*END

*D_NET *16 0.00348847
*CONN
*P A[9] I
*I *508:A I *D sky130_fd_sc_hd__buf_1
*CAP
1 A[9] 0.0012823
2 *508:A 0.0012823
3 *508:A Carry[2] 0.000275169
4 *508:A *487:B1 0.00013117
5 *508:A *488:B1 0.000157919
6 *508:A *557:A 2.14725e-05
7 *508:A *573:A 2.23477e-05
8 *508:A *122:8 0.00031579
*RES
1 A[9] *508:A 27.24 
*END

*D_NET *17 0.000487326
*CONN
*P B[0] I
*I *509:A I *D sky130_fd_sc_hd__dlymetal6s2s_1
*CAP
1 B[0] 0.000164096
2 *509:A 0.000164096
3 *509:A Sum[15] 7.61149e-05
4 *509:A *513:A 6.37214e-05
5 *509:A *127:24 1.92979e-05
*RES
1 B[0] *509:A 4.84677 
*END

*D_NET *18 0.00169594
*CONN
*P B[10] I
*I *510:A I *D sky130_fd_sc_hd__buf_1
*CAP
1 B[10] 0.000491613
2 *510:A 0.000491613
3 *510:A Carry[12] 7.93843e-05
4 *510:A Sum[12] 0
5 *510:A *495:A1 0
6 *510:A *495:A2 0
7 *510:A *525:A 0.000325543
8 *510:A *543:A 7.69142e-05
9 *510:A *552:A 0.000230869
10 *510:A *159:10 0
*RES
1 B[10] *510:A 12.2418 
*END

*D_NET *19 0.00224818
*CONN
*P B[11] I
*I *511:A I *D sky130_fd_sc_hd__buf_1
*CAP
1 B[11] 0.000648096
2 *511:A 0.000648096
3 *511:A Carry[10] 0.00021374
4 *511:A Sum[5] 0
5 *511:A Sum[8] 0.000402135
6 *511:A *490:B1 3.75882e-06
7 *511:A *518:A 0.000332355
*RES
1 B[11] *511:A 12.7806 
*END

*D_NET *20 0.000987586
*CONN
*P B[12] I
*I *513:A I *D sky130_fd_sc_hd__dlymetal6s2s_1
*CAP
1 B[12] 0.000342047
2 *513:A 0.000342047
3 *513:A *520:A 5.03432e-05
4 *513:A *529:A 4.40055e-05
5 *513:A *127:24 0.000145421
6 *509:A *513:A 6.37214e-05
*RES
1 B[12] *513:A 6.88503 
*END

*D_NET *21 0.00216024
*CONN
*P B[13] I
*I *514:A I *D sky130_fd_sc_hd__buf_1
*CAP
1 B[13] 0.000889922
2 *514:A 0.000889922
3 *514:A *522:A 0
4 *514:A *524:A 0.00021146
5 *514:A *539:A 0
6 *514:A *541:A 6.26285e-05
7 *514:A *170:22 2.10152e-05
8 *506:A *514:A 0
9 *545:A *514:A 8.52883e-05
*RES
1 B[13] *514:A 19.59 
*END

*D_NET *22 0.00265171
*CONN
*P B[14] I
*I *515:A I *D sky130_fd_sc_hd__dlymetal6s2s_1
*CAP
1 B[14] 0.00057511
2 *515:A 0.00057511
3 *515:A *488:A1 0.000197215
4 *515:A *488:A2 0.000232403
5 *515:A *520:A 5.45241e-05
6 *515:A *521:A 6.57116e-05
7 *515:A *526:A 2.86975e-05
8 *515:A *535:A 9.19395e-05
9 *515:A *556:A 2.14655e-05
10 *515:A *564:A 0.000120684
11 *515:A *574:A 2.01934e-05
12 *515:A *129:22 1.20052e-05
13 *515:A *140:8 0.000454668
14 *507:A *515:A 0.000201984
*RES
1 B[14] *515:A 15.3318 
*END

*D_NET *23 0.000608618
*CONN
*P B[15] I
*I *516:A I *D sky130_fd_sc_hd__buf_1
*CAP
1 B[15] 0.000261151
2 *516:A 0.000261151
3 *506:A *516:A 4.42044e-05
4 *523:A *516:A 4.21111e-05
*RES
1 B[15] *516:A 7.3737 
*END

*D_NET *24 0.000672376
*CONN
*P B[1] I
*I *517:A I *D sky130_fd_sc_hd__buf_1
*CAP
1 B[1] 0.0002528
2 *517:A 0.0002528
3 *517:A Carry[14] 3.59949e-05
4 *517:A *530:A 3.59949e-05
5 *517:A *144:8 9.47866e-05
*RES
1 B[1] *517:A 6.63177 
*END

*D_NET *25 0.00282342
*CONN
*P B[2] I
*I *518:A I *D sky130_fd_sc_hd__buf_1
*CAP
1 B[2] 0.000942356
2 *518:A 0.000942356
3 *518:A Carry[10] 0.000606358
4 *504:A *518:A 0
5 *511:A *518:A 0.000332355
*RES
1 B[2] *518:A 15.5054 
*END

*D_NET *26 0.000945422
*CONN
*P B[3] I
*I *519:A I *D sky130_fd_sc_hd__buf_1
*CAP
1 B[3] 0.000411311
2 *519:A 0.000411311
3 *519:A Sum[6] 0
4 *519:A *537:A 0
5 *519:A *148:18 0.000122801
*RES
1 B[3] *519:A 11.04 
*END

*D_NET *27 0.00167058
*CONN
*P B[4] I
*I *520:A I *D sky130_fd_sc_hd__buf_1
*CAP
1 B[4] 0.000699959
2 *520:A 0.000699959
3 *520:A *529:A 0.000113387
4 *520:A *574:A 4.6368e-06
5 *520:A *127:24 4.77719e-05
6 *513:A *520:A 5.03432e-05
7 *515:A *520:A 5.45241e-05
*RES
1 B[4] *520:A 13.0102 
*END

*D_NET *28 0.00372502
*CONN
*P B[5] I
*I *521:A I *D sky130_fd_sc_hd__buf_1
*CAP
1 B[5] 0.00119709
2 *521:A 0.00119709
3 *521:A Carry[1] 5.38187e-05
4 *521:A Carry[9] 0.000261372
5 *521:A *459:A 1.67904e-05
6 *521:A *491:B1 0.000147473
7 *521:A *535:A 0
8 *521:A *557:A 0.000342566
9 *521:A *121:16 0.00011099
10 *521:A *125:25 4.66526e-05
11 *521:A *137:28 8.35068e-05
12 *507:A *521:A 0.000201952
13 *515:A *521:A 6.57116e-05
*RES
1 B[5] *521:A 15.6917 
*END

*D_NET *29 0.0025436
*CONN
*P B[6] I
*I *522:A I *D sky130_fd_sc_hd__buf_1
*CAP
1 B[6] 0.000725643
2 *522:A 0.000725643
3 *522:A *524:A 0.000126532
4 *522:A *539:A 0.000194789
5 *522:A *565:A 6.6364e-05
6 *522:A *170:22 8.64421e-05
7 *505:A *522:A 0.000508954
8 *514:A *522:A 0
9 *545:A *522:A 0.000109232
*RES
1 B[6] *522:A 19.26 
*END

*D_NET *30 0.00166749
*CONN
*P B[7] I
*I *524:A I *D sky130_fd_sc_hd__buf_1
*CAP
1 B[7] 0.000528464
2 *524:A 0.000528464
3 *524:A *484:A1 1.75875e-05
4 *524:A *541:A 0.000103829
5 *524:A *128:20 4.82863e-05
6 *524:A *170:22 3.98481e-05
7 *514:A *524:A 0.00021146
8 *522:A *524:A 0.000126532
9 *545:A *524:A 6.3023e-05
*RES
1 B[7] *524:A 12.6502 
*END

*D_NET *31 0.00292715
*CONN
*P B[8] I
*I *525:A I *D sky130_fd_sc_hd__buf_1
*CAP
1 B[8] 0.000931223
2 *525:A 0.000931223
3 *525:A Carry[5] 0
4 *525:A Sum[12] 0
5 *525:A *463:A 4.66108e-05
6 *525:A *463:B 2.16833e-05
7 *525:A *464:B 8.57024e-05
8 *525:A *469:B1 0
9 *525:A *496:B1 0.000198945
10 *525:A *552:A 8.49205e-05
11 *525:A *553:A 0.000122337
12 *525:A *128:20 0.000146473
13 *525:A *128:24 3.24882e-05
14 *510:A *525:A 0.000325543
*RES
1 B[8] *525:A 21.195 
*END

*D_NET *32 0.00164475
*CONN
*P B[9] I
*I *526:A I *D sky130_fd_sc_hd__buf_1
*CAP
1 B[9] 0.000590364
2 *526:A 0.000590364
3 *526:A Carry[1] 0
4 *526:A *556:A 0.000235339
5 *526:A *129:22 8.90289e-05
6 *526:A *149:24 0.000110952
7 *515:A *526:A 2.86975e-05
8 *547:A *526:A 0
*RES
1 B[9] *526:A 15.36 
*END

*D_NET *33 0.00085704
*CONN
*P C[0] I
*I *527:A I *D sky130_fd_sc_hd__buf_1
*CAP
1 C[0] 0.000425928
2 *527:A 0.000425928
3 *527:A Sum[13] 0
4 *527:A *560:A 5.18317e-06
5 *527:A *115:14 0
6 *502:A *527:A 0
*RES
1 C[0] *527:A 10.35 
*END

*D_NET *34 0.000932501
*CONN
*P C[10] I
*I *528:A I *D sky130_fd_sc_hd__buf_1
*CAP
1 C[10] 0.000366589
2 *528:A 0.000366589
3 *528:A Carry[0] 3.95538e-05
4 *528:A Sum[4] 0
5 *528:A *536:A 0.000159769
6 *544:A *528:A 0
*RES
1 C[10] *528:A 7.5589 
*END

*D_NET *35 0.000682416
*CONN
*P C[11] I
*I *529:A I *D sky130_fd_sc_hd__buf_1
*CAP
1 C[11] 0.000262512
2 *529:A 0.000262512
3 *513:A *529:A 4.40055e-05
4 *520:A *529:A 0.000113387
*RES
1 C[11] *529:A 7.7187 
*END

*D_NET *36 0.000552435
*CONN
*P C[12] I
*I *530:A I *D sky130_fd_sc_hd__buf_1
*CAP
1 C[12] 0.000240223
2 *530:A 0.000240223
3 *530:A *144:8 0
4 *503:A *530:A 3.59949e-05
5 *517:A *530:A 3.59949e-05
*RES
1 C[12] *530:A 7.40543 
*END

*D_NET *37 0.00281239
*CONN
*P C[13] I
*I *531:A I *D sky130_fd_sc_hd__buf_1
*CAP
1 C[13] 0.00136971
2 *531:A 0.00136971
3 *531:A Carry[4] 7.29825e-05
4 *531:A Sum[4] 0
*RES
1 C[13] *531:A 27.555 
*END

*D_NET *38 0.00241485
*CONN
*P C[14] I
*I *532:A I *D sky130_fd_sc_hd__buf_1
*CAP
1 C[14] 0.000506225
2 *532:A 0.000506225
3 *532:A Carry[12] 0.000343394
4 *532:A Sum[13] 0
5 *532:A *543:A 3.09164e-05
6 *532:A *560:A 0.000190659
7 *532:A *569:A 0.000239296
8 *532:A *115:14 5.88334e-05
9 *532:A *157:22 0.000539297
10 *501:A *532:A 0
11 *546:A *532:A 0
*RES
1 C[14] *532:A 17.04 
*END

*D_NET *39 0.00174409
*CONN
*P C[15] I
*I *533:A I *D sky130_fd_sc_hd__buf_1
*CAP
1 C[15] 0.000614024
2 *533:A 0.000614024
3 *533:A Sum[6] 0
4 *533:A *561:A 0.000110492
5 *533:A *119:20 3.52639e-05
6 *533:A *157:22 0.000227022
7 *534:A *533:A 0.000143264
*RES
1 C[15] *533:A 15.435 
*END

*D_NET *40 0.00169655
*CONN
*P C[1] I
*I *535:A I *D sky130_fd_sc_hd__buf_1
*CAP
1 C[1] 0.000459309
2 *535:A 0.000459309
3 *535:A Carry[1] 0
4 *535:A Carry[6] 0.00015356
5 *535:A Carry[9] 0.000306748
6 *535:A Sum[3] 0
7 *535:A *149:24 6.71489e-05
8 *507:A *535:A 0.000158536
9 *515:A *535:A 9.19395e-05
10 *521:A *535:A 0
*RES
1 C[1] *535:A 18.67 
*END

*D_NET *41 0.00148808
*CONN
*P C[2] I
*I *536:A I *D sky130_fd_sc_hd__buf_1
*CAP
1 C[2] 0.000570577
2 *536:A 0.000570577
3 *536:A Sum[4] 0
4 *536:A *549:A 0.000136435
5 *528:A *536:A 0.000159769
6 *544:A *536:A 5.07176e-05
*RES
1 C[2] *536:A 12.3952 
*END

*D_NET *42 0.000865489
*CONN
*P C[3] I
*I *537:A I *D sky130_fd_sc_hd__buf_1
*CAP
1 C[3] 0.000432745
2 *537:A 0.000432745
3 *537:A Sum[1] 0
4 *519:A *537:A 0
*RES
1 C[3] *537:A 12.375 
*END

*D_NET *43 0.00155472
*CONN
*P C[4] I
*I *538:A I *D sky130_fd_sc_hd__buf_1
*CAP
1 C[4] 0.000502646
2 *538:A 0.000502646
3 *538:A Carry[7] 6.29166e-05
4 *538:A Sum[7] 3.45293e-05
5 *538:A *493:A2 4.66108e-05
6 *538:A *493:B1 0.000270498
7 *538:A *552:A 5.44587e-05
8 *538:A *562:A 8.04159e-05
*RES
1 C[4] *538:A 11.1035 
*END

*D_NET *44 0.00223563
*CONN
*P C[5] I
*I *539:A I *D sky130_fd_sc_hd__buf_1
*CAP
1 C[5] 0.000967899
2 *539:A 0.000967899
3 *539:A Sum[0] 2.10214e-05
4 *539:A *541:A 0
5 *539:A *565:A 8.40213e-05
6 *514:A *539:A 0
7 *522:A *539:A 0.000194789
*RES
1 C[5] *539:A 20.64 
*END

*D_NET *45 0.00100265
*CONN
*P C[6] I
*I *540:A I *D sky130_fd_sc_hd__buf_1
*CAP
1 C[6] 0.000501326
2 *540:A 0.000501326
3 *540:A Carry[15] 0
4 *504:A *540:A 0
*RES
1 C[6] *540:A 12.495 
*END

*D_NET *46 0.00075575
*CONN
*P C[7] I
*I *541:A I *D sky130_fd_sc_hd__buf_1
*CAP
1 C[7] 0.000274032
2 *541:A 0.000274032
3 *506:A *541:A 4.12285e-05
4 *514:A *541:A 6.26285e-05
5 *524:A *541:A 0.000103829
6 *539:A *541:A 0
*RES
1 C[7] *541:A 7.7337 
*END

*D_NET *47 0.000485103
*CONN
*P C[8] I
*I *542:A I *D sky130_fd_sc_hd__buf_1
*CAP
1 C[8] 0.000198546
2 *542:A 0.000198546
3 *542:A Sum[9] 4.40055e-05
4 *523:A *542:A 4.40055e-05
*RES
1 C[8] *542:A 6.4587 
*END

*D_NET *48 0.00244779
*CONN
*P C[9] I
*I *543:A I *D sky130_fd_sc_hd__buf_1
*CAP
1 C[9] 0.00107183
2 *543:A 0.00107183
3 *543:A Carry[12] 3.41372e-05
4 *543:A *569:A 0.000125183
5 *510:A *543:A 7.69142e-05
6 *532:A *543:A 3.09164e-05
7 *548:A *543:A 3.6993e-05
*RES
1 C[9] *543:A 7.40363 
*END

*D_NET *49 0.000786023
*CONN
*P Carry[0] O
*I *549:X O *D sky130_fd_sc_hd__clkbuf_4
*CAP
1 Carry[0] 0.000356328
2 *549:X 0.000356328
3 Carry[0] Carry[4] 3.38123e-05
4 Carry[0] *159:10 0
5 *528:A Carry[0] 3.95538e-05
*RES
1 *549:X Carry[0] 5.92503 
*END

*D_NET *50 0.00200985
*CONN
*P Carry[10] O
*I *550:X O *D sky130_fd_sc_hd__clkbuf_4
*CAP
1 Carry[10] 0.000515457
2 *550:X 0.000515457
3 Carry[10] Sum[5] 0
4 Carry[10] *576:A 2.06497e-05
5 Carry[10] *579:A 8.9336e-05
6 *504:A Carry[10] 4.8854e-05
7 *511:A Carry[10] 0.00021374
8 *518:A Carry[10] 0.000606358
*RES
1 *550:X Carry[10] 14.985 
*END

*D_NET *51 0.00129584
*CONN
*P Carry[11] O
*I *551:X O *D sky130_fd_sc_hd__clkbuf_4
*CAP
1 Carry[11] 0.000578458
2 *551:X 0.000578458
3 Carry[11] Carry[15] 0
4 Carry[11] *555:A 0.000138921
5 *512:A Carry[11] 0
*RES
1 *551:X Carry[11] 13.86 
*END

*D_NET *52 0.00222916
*CONN
*P Carry[12] O
*I *552:X O *D sky130_fd_sc_hd__clkbuf_4
*CAP
1 Carry[12] 0.000624071
2 *552:X 0.000624071
3 Carry[12] *568:A 0.00013646
4 *510:A Carry[12] 7.93843e-05
5 *532:A Carry[12] 0.000343394
6 *543:A Carry[12] 3.41372e-05
7 *546:A Carry[12] 0.000387643
*RES
1 *552:X Carry[12] 11.0538 
*END

*D_NET *53 0.00366597
*CONN
*P Carry[13] O
*I *553:X O *D sky130_fd_sc_hd__clkbuf_4
*CAP
1 Carry[13] 0.00145595
2 *553:X 0.00145595
3 Carry[13] Carry[5] 0
4 Carry[13] *552:A 2.36716e-05
5 Carry[13] *194:16 0.000650004
6 *548:A Carry[13] 8.03844e-05
*RES
1 *553:X Carry[13] 26.925 
*END

*D_NET *54 0.000475231
*CONN
*P Carry[14] O
*I *554:X O *D sky130_fd_sc_hd__clkbuf_4
*CAP
1 Carry[14] 0.000202712
2 *554:X 0.000202712
3 Carry[14] Carry[7] 3.38123e-05
4 Carry[14] *144:8 0
5 *517:A Carry[14] 3.59949e-05
*RES
1 *554:X Carry[14] 6.64043 
*END

*D_NET *55 0.000969726
*CONN
*P Carry[15] O
*I *555:X O *D sky130_fd_sc_hd__clkbuf_4
*CAP
1 Carry[15] 0.000484863
2 *555:X 0.000484863
3 Carry[11] Carry[15] 0
4 *540:A Carry[15] 0
*RES
1 *555:X Carry[15] 12.24 
*END

*D_NET *56 0.00160931
*CONN
*P Carry[1] O
*I *556:X O *D sky130_fd_sc_hd__clkbuf_4
*CAP
1 Carry[1] 0.000630628
2 *556:X 0.000630628
3 Carry[1] *556:A 0.000272235
4 *507:A Carry[1] 2.20014e-05
5 *521:A Carry[1] 5.38187e-05
6 *526:A Carry[1] 0
7 *535:A Carry[1] 0
*RES
1 *556:X Carry[1] 14.295 
*END

*D_NET *57 0.00174359
*CONN
*P Carry[2] O
*I *557:X O *D sky130_fd_sc_hd__clkbuf_4
*CAP
1 Carry[2] 0.00073421
2 *557:X 0.00073421
3 *507:A Carry[2] 0
4 *508:A Carry[2] 0.000275169
*RES
1 *557:X Carry[2] 15.99 
*END

*D_NET *58 0.000948749
*CONN
*P Carry[3] O
*I *558:X O *D sky130_fd_sc_hd__clkbuf_4
*CAP
1 Carry[3] 0.000474374
2 *558:X 0.000474374
3 Carry[3] Sum[10] 0
4 Carry[3] Sum[5] 0
*RES
1 *558:X Carry[3] 11.685 
*END

*D_NET *59 0.000749883
*CONN
*P Carry[4] O
*I *559:X O *D sky130_fd_sc_hd__clkbuf_4
*CAP
1 Carry[4] 0.000303546
2 *559:X 0.000303546
3 Carry[4] *559:A 0
4 Carry[0] Carry[4] 3.38123e-05
5 *503:A Carry[4] 3.59949e-05
6 *531:A Carry[4] 7.29825e-05
*RES
1 *559:X Carry[4] 8.26043 
*END

*D_NET *60 0.00259992
*CONN
*P Carry[5] O
*I *560:X O *D sky130_fd_sc_hd__clkbuf_4
*CAP
1 Carry[5] 0.000769179
2 *560:X 0.000769179
3 Carry[5] *568:A 7.22354e-05
4 Carry[5] *115:14 0.000532523
5 Carry[13] Carry[5] 0
6 *501:A Carry[5] 0.000456803
7 *525:A Carry[5] 0
*RES
1 *560:X Carry[5] 19.5 
*END

*D_NET *61 0.00267786
*CONN
*P Carry[6] O
*I *561:X O *D sky130_fd_sc_hd__clkbuf_4
*CAP
1 Carry[6] 0.000830409
2 *561:X 0.000830409
3 Carry[6] Carry[9] 0.000327159
4 Carry[6] Sum[3] 0.00046616
5 Carry[6] *149:24 7.01578e-05
6 *535:A Carry[6] 0.00015356
*RES
1 *561:X Carry[6] 15.349 
*END

*D_NET *62 0.000562138
*CONN
*P Carry[7] O
*I *562:X O *D sky130_fd_sc_hd__clkbuf_4
*CAP
1 Carry[7] 0.000232705
2 *562:X 0.000232705
3 Carry[7] *552:A 0
4 Carry[14] Carry[7] 3.38123e-05
5 *538:A Carry[7] 6.29166e-05
*RES
1 *562:X Carry[7] 7.15043 
*END

*D_NET *63 0.0007314
*CONN
*P Carry[8] O
*I *563:X O *D sky130_fd_sc_hd__clkbuf_4
*CAP
1 Carry[8] 0.0003657
2 *563:X 0.0003657
3 Carry[8] Sum[14] 0
4 Carry[8] *148:18 0
5 *502:A Carry[8] 0
*RES
1 *563:X Carry[8] 9.84 
*END

*D_NET *64 0.00376275
*CONN
*P Carry[9] O
*I *564:X O *D sky130_fd_sc_hd__clkbuf_4
*CAP
1 Carry[9] 0.00118279
2 *564:X 0.00118279
3 Carry[9] *455:A 4.77719e-05
4 Carry[9] *455:B 1.31227e-05
5 Carry[9] *491:B1 8.12896e-06
6 Carry[9] *557:A 0.000158544
7 Carry[9] *561:A 9.24881e-05
8 Carry[9] *564:A 4.89295e-05
9 Carry[9] *573:A 9.23578e-05
10 Carry[9] *143:6 4.05397e-05
11 Carry[6] Carry[9] 0.000327159
12 *521:A Carry[9] 0.000261372
13 *535:A Carry[9] 0.000306748
*RES
1 *564:X Carry[9] 18.9721 
*END

*D_NET *65 0.00196267
*CONN
*P Sum[0] O
*I *565:X O *D sky130_fd_sc_hd__clkbuf_4
*CAP
1 Sum[0] 0.000675413
2 *565:X 0.000675413
3 Sum[0] *565:A 8.23457e-05
4 Sum[0] *119:12 7.23533e-05
5 Sum[0] *155:14 7.23533e-05
6 Sum[0] *157:22 0
7 *505:A Sum[0] 0.000104673
8 *534:A Sum[0] 0
9 *539:A Sum[0] 2.10214e-05
10 *545:A Sum[0] 0.000259099
*RES
1 *565:X Sum[0] 13.4764 
*END

*D_NET *66 0.00100736
*CONN
*P Sum[10] O
*I *566:X O *D sky130_fd_sc_hd__clkbuf_4
*CAP
1 Sum[10] 0.000503682
2 *566:X 0.000503682
3 Sum[10] Sum[4] 0
4 Carry[3] Sum[10] 0
*RES
1 *566:X Sum[10] 12.135 
*END

*D_NET *67 0.000623849
*CONN
*P Sum[11] O
*I *567:X O *D sky130_fd_sc_hd__clkbuf_4
*CAP
1 Sum[11] 0.000241483
2 *567:X 0.000241483
3 Sum[11] Sum[15] 5.46823e-05
4 Sum[11] Sum[9] 6.58024e-05
5 Sum[11] *127:24 2.03987e-05
*RES
1 *567:X Sum[11] 5.80677 
*END

*D_NET *68 0.0010369
*CONN
*P Sum[12] O
*I *568:X O *D sky130_fd_sc_hd__clkbuf_4
*CAP
1 Sum[12] 0.000423767
2 *568:X 0.000423767
3 Sum[12] *495:A1 7.58604e-05
4 Sum[12] *495:B1 4.82919e-05
5 Sum[12] *148:18 0
6 *501:A Sum[12] 6.52181e-05
7 *510:A Sum[12] 0
8 *525:A Sum[12] 0
*RES
1 *568:X Sum[12] 11.13 
*END

*D_NET *69 0.0010205
*CONN
*P Sum[13] O
*I *569:X O *D sky130_fd_sc_hd__clkbuf_4
*CAP
1 Sum[13] 0.000510248
2 *569:X 0.000510248
3 *527:A Sum[13] 0
4 *532:A Sum[13] 0
*RES
1 *569:X Sum[13] 10.53 
*END

*D_NET *70 0.000790943
*CONN
*P Sum[14] O
*I *570:X O *D sky130_fd_sc_hd__clkbuf_4
*CAP
1 Sum[14] 0.000395472
2 *570:X 0.000395472
3 Sum[14] Sum[1] 0
4 Carry[8] Sum[14] 0
*RES
1 *570:X Sum[14] 10.395 
*END

*D_NET *71 0.000670214
*CONN
*P Sum[15] O
*I *571:X O *D sky130_fd_sc_hd__clkbuf_4
*CAP
1 Sum[15] 0.000260675
2 *571:X 0.000260675
3 Sum[15] *567:A 7.97197e-06
4 Sum[15] *127:24 1.00941e-05
5 Sum[11] Sum[15] 5.46823e-05
6 *509:A Sum[15] 7.61149e-05
*RES
1 *571:X Sum[15] 5.06717 
*END

*D_NET *72 0.000659064
*CONN
*P Sum[1] O
*I *572:X O *D sky130_fd_sc_hd__clkbuf_4
*CAP
1 Sum[1] 0.000329532
2 *572:X 0.000329532
3 Sum[14] Sum[1] 0
4 *537:A Sum[1] 0
*RES
1 *572:X Sum[1] 9.39 
*END

*D_NET *73 0.00244082
*CONN
*P Sum[2] O
*I *573:X O *D sky130_fd_sc_hd__clkbuf_4
*CAP
1 Sum[2] 0.000914485
2 *573:X 0.000914485
3 Sum[2] Sum[3] 0
4 Sum[2] *487:B1 0.000304853
5 Sum[2] *488:B1 3.54295e-05
6 Sum[2] *564:A 0.000256523
7 *507:A Sum[2] 1.50487e-05
*RES
1 *573:X Sum[2] 21.045 
*END

*D_NET *74 0.00145476
*CONN
*P Sum[3] O
*I *574:X O *D sky130_fd_sc_hd__clkbuf_4
*CAP
1 Sum[3] 0.000414155
2 *574:X 0.000414155
3 Sum[3] *149:24 3.63288e-05
4 Carry[6] Sum[3] 0.00046616
5 Sum[2] Sum[3] 0