*SPEF "ieee 1481-1999"
*DESIGN "csa"
*DATE "11:11:11 Fri 11 11, 1111"
*VENDOR "OpenRCX"
*PROGRAM "Parallel Extraction"
*VERSION "1.0"
*DESIGN_FLOW "NAME_SCOPE LOCAL" "PIN_CAP NONE"
*DIVIDER /
*DELIMITER :
*BUS_DELIMITER []
*T_UNIT 1 NS
*C_UNIT 1 PF
*R_UNIT 1 OHM
*L_UNIT 1 HENRY

*NAME_MAP
*1 A[0]
*2 A[10]
*3 A[11]
*4 A[12]
*5 A[13]
*6 A[14]
*7 A[15]
*8 A[1]
*9 A[2]
*10 A[3]
*11 A[4]
*12 A[5]
*13 A[6]
*14 A[7]
*15 A[8]
*16 A[9]
*17 B[0]
*18 B[10]
*19 B[11]
*20 B[12]
*21 B[13]
*22 B[14]
*23 B[15]
*24 B[1]
*25 B[2]
*26 B[3]
*27 B[4]
*28 B[5]
*29 B[6]
*30 B[7]
*31 B[8]
*32 B[9]
*33 C[0]
*34 C[10]
*35 C[11]
*36 C[12]
*37 C[13]
*38 C[14]
*39 C[15]
*40 C[1]
*41 C[2]
*42 C[3]
*43 C[4]
*44 C[5]
*45 C[6]
*46 C[7]
*47 C[8]
*48 C[9]
*49 Carry[0]
*50 Carry[10]
*51 Carry[11]
*52 Carry[12]
*53 Carry[13]
*54 Carry[14]
*55 Carry[15]
*56 Carry[1]
*57 Carry[2]
*58 Carry[3]
*59 Carry[4]
*60 Carry[5]
*61 Carry[6]
*62 Carry[7]
*63 Carry[8]
*64 Carry[9]
*65 Sum[0]
*66 Sum[10]
*67 Sum[11]
*68 Sum[12]
*69 Sum[13]
*70 Sum[14]
*71 Sum[15]
*72 Sum[1]
*73 Sum[2]
*74 Sum[3]
*75 Sum[4]
*76 Sum[5]
*77 Sum[6]
*78 Sum[7]
*79 Sum[8]
*80 Sum[9]
*83 _00_
*84 _01_
*85 _02_
*86 _03_
*87 _04_
*88 _05_
*89 _06_
*90 _07_
*91 _08_
*92 _09_
*93 _10_
*94 _11_
*95 _12_
*96 _13_
*97 _14_
*98 _15_
*99 _16_
*100 _17_
*101 _18_
*102 _19_
*103 _20_
*104 _21_
*105 _22_
*106 _23_
*107 _24_
*108 _25_
*109 _26_
*110 _27_
*111 _28_
*112 _29_
*113 _30_
*114 _31_
*115 net1
*116 net10
*117 net11
*118 net12
*119 net13
*120 net14
*121 net15
*122 net16
*123 net17
*124 net18
*125 net19
*126 net2
*127 net20
*128 net21
*129 net22
*130 net23
*131 net24
*132 net25
*133 net26
*134 net27
*135 net28
*136 net29
*137 net3
*138 net30
*139 net31
*140 net32
*141 net33
*142 net34
*143 net35
*144 net36
*145 net37
*146 net38
*147 net39
*148 net4
*149 net40
*150 net41
*151 net42
*152 net43
*153 net44
*154 net45
*155 net46
*156 net47
*157 net48
*158 net49
*159 net5
*160 net50
*161 net51
*162 net52
*163 net53
*164 net54
*165 net55
*166 net56
*167 net57
*168 net58
*169 net59
*170 net6
*171 net60
*172 net61
*173 net62
*174 net63
*175 net64
*176 net65
*177 net66
*178 net67
*179 net68
*180 net69
*181 net7
*182 net70
*183 net71
*184 net72
*185 net73
*186 net74
*187 net75
*188 net76
*189 net77
*190 net78
*191 net79
*192 net8
*193 net80
*194 net9
*195 FILLER_0_0_107
*196 FILLER_0_0_29
*197 FILLER_0_0_3
*198 FILLER_0_0_37
*199 FILLER_0_0_44
*200 FILLER_0_0_48
*201 FILLER_0_0_57
*202 FILLER_0_0_70
*203 FILLER_0_0_76
*204 FILLER_0_0_83
*205 FILLER_0_0_85
*206 FILLER_0_0_93
*207 FILLER_0_10_12
*208 FILLER_0_10_24
*209 FILLER_0_10_29
*210 FILLER_0_10_41
*211 FILLER_0_10_53
*212 FILLER_0_10_65
*213 FILLER_0_10_77
*214 FILLER_0_10_83
*215 FILLER_0_10_85
*216 FILLER_0_10_97
*217 FILLER_0_11_22
*218 FILLER_0_11_46
*219 FILLER_0_11_54
*220 FILLER_0_11_57
*221 FILLER_0_11_6
*222 FILLER_0_11_61
*223 FILLER_0_11_69
*224 FILLER_0_11_81
*225 FILLER_0_11_93
*226 FILLER_0_12_14
*227 FILLER_0_12_26
*228 FILLER_0_12_3
*229 FILLER_0_12_43
*230 FILLER_0_12_55
*231 FILLER_0_12_65
*232 FILLER_0_12_7
*233 FILLER_0_12_77
*234 FILLER_0_12_83
*235 FILLER_0_12_85
*236 FILLER_0_12_97
*237 FILLER_0_13_100
*238 FILLER_0_13_107
*239 FILLER_0_13_12
*240 FILLER_0_13_24
*241 FILLER_0_13_36
*242 FILLER_0_13_48
*243 FILLER_0_13_57
*244 FILLER_0_13_61
*245 FILLER_0_13_74
*246 FILLER_0_13_86
*247 FILLER_0_13_92
*248 FILLER_0_14_16
*249 FILLER_0_14_29
*250 FILLER_0_14_41
*251 FILLER_0_14_53
*252 FILLER_0_14_65
*253 FILLER_0_14_77
*254 FILLER_0_14_83
*255 FILLER_0_14_9
*256 FILLER_0_14_92
*257 FILLER_0_15_108
*258 FILLER_0_15_24
*259 FILLER_0_15_42
*260 FILLER_0_15_54
*261 FILLER_0_15_57
*262 FILLER_0_15_69
*263 FILLER_0_15_81
*264 FILLER_0_15_9
*265 FILLER_0_16_101
*266 FILLER_0_16_13
*267 FILLER_0_16_27
*268 FILLER_0_16_29
*269 FILLER_0_16_44
*270 FILLER_0_16_52
*271 FILLER_0_16_64
*272 FILLER_0_16_76
*273 FILLER_0_16_80
*274 FILLER_0_16_85
*275 FILLER_0_17_100
*276 FILLER_0_17_107
*277 FILLER_0_17_27
*278 FILLER_0_17_41
*279 FILLER_0_17_51
*280 FILLER_0_17_55
*281 FILLER_0_17_69
*282 FILLER_0_1_105
*283 FILLER_0_1_29
*284 FILLER_0_1_3
*285 FILLER_0_1_44
*286 FILLER_0_1_53
*287 FILLER_0_1_57
*288 FILLER_0_1_69
*289 FILLER_0_1_79
*290 FILLER_0_1_85
*291 FILLER_0_2_13
*292 FILLER_0_2_27
*293 FILLER_0_2_29
*294 FILLER_0_2_36
*295 FILLER_0_2_48
*296 FILLER_0_2_56
*297 FILLER_0_2_64
*298 FILLER_0_2_76
*299 FILLER_0_2_85
*300 FILLER_0_2_93
*301 FILLER_0_3_16
*302 FILLER_0_3_28
*303 FILLER_0_3_40
*304 FILLER_0_3_52
*305 FILLER_0_3_57
*306 FILLER_0_3_61
*307 FILLER_0_3_75
*308 FILLER_0_3_87
*309 FILLER_0_3_91
*310 FILLER_0_3_98
*311 FILLER_0_4_105
*312 FILLER_0_4_21
*313 FILLER_0_4_27
*314 FILLER_0_4_29
*315 FILLER_0_4_37
*316 FILLER_0_4_47
*317 FILLER_0_4_59
*318 FILLER_0_4_67
*319 FILLER_0_4_76
*320 FILLER_0_4_85
*321 FILLER_0_4_9
*322 FILLER_0_5_103
*323 FILLER_0_5_19
*324 FILLER_0_5_31
*325 FILLER_0_5_48
*326 FILLER_0_5_57
*327 FILLER_0_5_69
*328 FILLER_0_5_81
*329 FILLER_0_5_9
*330 FILLER_0_5_93
*331 FILLER_0_6_105
*332 FILLER_0_6_24
*333 FILLER_0_6_29
*334 FILLER_0_6_3
*335 FILLER_0_6_38
*336 FILLER_0_6_50
*337 FILLER_0_6_62
*338 FILLER_0_6_74
*339 FILLER_0_6_82
*340 FILLER_0_6_85
*341 FILLER_0_6_97
*342 FILLER_0_7_105
*343 FILLER_0_7_21
*344 FILLER_0_7_33
*345 FILLER_0_7_45
*346 FILLER_0_7_49
*347 FILLER_0_7_63
*348 FILLER_0_7_75
*349 FILLER_0_7_87
*350 FILLER_0_7_9
*351 FILLER_0_7_99
*352 FILLER_0_8_106
*353 FILLER_0_8_15
*354 FILLER_0_8_27
*355 FILLER_0_8_29
*356 FILLER_0_8_3
*357 FILLER_0_8_41
*358 FILLER_0_8_49
*359 FILLER_0_8_64
*360 FILLER_0_8_76
*361 FILLER_0_8_98
*362 FILLER_0_9_100
*363 FILLER_0_9_18
*364 FILLER_0_9_30
*365 FILLER_0_9_42
*366 FILLER_0_9_54
*367 FILLER_0_9_57
*368 FILLER_0_9_6
*369 FILLER_0_9_69
*370 FILLER_0_9_81
*371 PHY_0
*372 PHY_1
*373 PHY_10
*374 PHY_11
*375 PHY_12
*376 PHY_13
*377 PHY_14
*378 PHY_15
*379 PHY_16
*380 PHY_17
*381 PHY_18
*382 PHY_19
*383 PHY_2
*384 PHY_20
*385 PHY_21
*386 PHY_22
*387 PHY_23
*388 PHY_24
*389 PHY_25
*390 PHY_26
*391 PHY_27
*392 PHY_28
*393 PHY_29
*394 PHY_3
*395 PHY_30
*396 PHY_31
*397 PHY_32
*398 PHY_33
*399 PHY_34
*400 PHY_35
*401 PHY_4
*402 PHY_5
*403 PHY_6
*404 PHY_7
*405 PHY_8
*406 PHY_9
*407 TAP_36
*408 TAP_37
*409 TAP_38
*410 TAP_39
*411 TAP_40
*412 TAP_41
*413 TAP_42
*414 TAP_43
*415 TAP_44
*416 TAP_45
*417 TAP_46
*418 TAP_47
*419 TAP_48
*420 TAP_49
*421 TAP_50
*422 TAP_51
*423 TAP_52
*424 TAP_53
*425 TAP_54
*426 TAP_55
*427 TAP_56
*428 TAP_57
*429 TAP_58
*430 TAP_59
*431 TAP_60
*432 TAP_61
*433 TAP_62
*434 TAP_63
*435 TAP_64
*436 TAP_65
*437 _32_
*438 _33_
*439 _34_
*440 _35_
*441 _36_
*442 _37_
*443 _38_
*444 _39_
*445 _40_
*446 _41_
*447 _42_
*448 _43_
*449 _44_
*450 _45_
*451 _46_
*452 _47_
*453 _48_
*454 _49_
*455 _50_
*456 _51_
*457 _52_
*458 _53_
*459 _54_
*460 _55_
*461 _56_
*462 _57_
*463 _58_
*464 _59_
*465 _60_
*466 _61_
*467 _62_
*468 _63_
*469 _64_
*470 _65_
*471 _66_
*472 _67_
*473 _68_
*474 _69_
*475 _70_
*476 _71_
*477 _72_
*478 _73_
*479 _74_
*480 _75_
*481 _76_
*482 _77_
*483 _78_
*484 _79_
*485 _80_
*486 _81_
*487 _82_
*488 _83_
*489 _84_
*490 _85_
*491 _86_
*492 _87_
*493 _88_
*494 _89_
*495 _90_
*496 _91_
*497 _92_
*498 _93_
*499 _94_
*500 _95_
*501 input1
*502 input10
*503 input11
*504 input12
*505 input13
*506 input14
*507 input15
*508 input16
*509 input17
*510 input18
*511 input19
*512 input2
*513 input20
*514 input21
*515 input22
*516 input23
*517 input24
*518 input25
*519 input26
*520 input27
*521 input28
*522 input29
*523 input3
*524 input30
*525 input31
*526 input32
*527 input33
*528 input34
*529 input35
*530 input36
*531 input37
*532 input38
*533 input39
*534 input4
*535 input40
*536 input41
*537 input42
*538 input43
*539 input44
*540 input45
*541 input46
*542 input47
*543 input48
*544 input5
*545 input6
*546 input7
*547 input8
*548 input9
*549 output49
*550 output50
*551 output51
*552 output52
*553 output53
*554 output54
*555 output55
*556 output56
*557 output57
*558 output58
*559 output59
*560 output60
*561 output61
*562 output62
*563 output63
*564 output64
*565 output65
*566 output66
*567 output67
*568 output68
*569 output69
*570 output70
*571 output71
*572 output72
*573 output73
*574 output74
*575 output75
*576 output76
*577 output77
*578 output78
*579 output79
*580 output80

*PORTS
A[0] I
A[10] I
A[11] I
A[12] I
A[13] I
A[14] I
A[15] I
A[1] I
A[2] I
A[3] I
A[4] I
A[5] I
A[6] I
A[7] I
A[8] I
A[9] I
B[0] I
B[10] I
B[11] I
B[12] I
B[13] I
B[14] I
B[15] I
B[1] I
B[2] I
B[3] I
B[4] I
B[5] I
B[6] I
B[7] I
B[8] I
B[9] I
C[0] I
C[10] I
C[11] I
C[12] I
C[13] I
C[14] I
C[15] I
C[1] I
C[2] I
C[3] I
C[4] I
C[5] I
C[6] I
C[7] I
C[8] I
C[9] I
Carry[0] O
Carry[10] O
Carry[11] O
Carry[12] O
Carry[13] O
Carry[14] O
Carry[15] O
Carry[1] O
Carry[2] O
Carry[3] O
Carry[4] O
Carry[5] O
Carry[6] O
Carry[7] O
Carry[8] O
Carry[9] O
Sum[0] O
Sum[10] O
Sum[11] O
Sum[12] O
Sum[13] O
Sum[14] O
Sum[15] O
Sum[1] O
Sum[2] O
Sum[3] O
Sum[4] O
Sum[5] O
Sum[6] O
Sum[7] O
Sum[8] O
Sum[9] O

*D_NET *1 0.00199493
*CONN
*P A[0] I
*I *501:A I *D sky130_fd_sc_hd__buf_1
*CAP
1 A[0] 0.000484003
2 *501:A 0.000484003
3 *501:A Carry[5] 0.000522439
4 *501:A Sum[12] 6.87476e-05
5 *501:A *495:A1 1.55885e-05
6 *501:A *495:B1 5.33005e-05
7 *501:A *532:A 0
8 *501:A *546:A 0.00028756
9 *501:A *148:18 7.92879e-05
*RES
1 A[0] *501:A 27.0857 
*END

*D_NET *2 0.00145866
*CONN
*P A[10] I
*I *512:A I *D sky130_fd_sc_hd__buf_1
*CAP
1 A[10] 0.000677572
2 *512:A 0.000677572
3 *512:A Carry[11] 0
4 *512:A *547:A 0
5 *512:A *555:A 6.05161e-06
6 *512:A *126:16 2.29031e-05
7 *512:A *129:14 7.4561e-05
*RES
1 A[10] *512:A 27.1036 
*END

*D_NET *3 0.000777629
*CONN
*P A[11] I
*I *523:A I *D sky130_fd_sc_hd__buf_1
*CAP
1 A[11] 0.000345815
2 *523:A 0.000345815
3 *523:A Sum[9] 0
4 *523:A *516:A 4.20532e-05
5 *523:A *542:A 4.39463e-05
*RES
1 A[11] *523:A 19.4628 
*END

*D_NET *4 0.00131276
*CONN
*P A[12] I
*I *534:A I *D sky130_fd_sc_hd__dlymetal6s2s_1
*CAP
1 A[12] 0.000533215
2 *534:A 0.000533215
3 *534:A Sum[0] 0
4 *534:A Sum[6] 0
5 *534:A *505:A 0
6 *534:A *533:A 0.00015052
7 *534:A *148:12 9.58126e-05
*RES
1 A[12] *534:A 26.7643 
*END

*D_NET *5 0.00181424
*CONN
*P A[13] I
*I *544:A I *D sky130_fd_sc_hd__buf_1
*CAP
1 A[13] 0.000645401
2 *544:A 0.000645401
3 *544:A Sum[8] 0.000111508
4 *544:A *458:B 0.000147784
5 *544:A *528:A 0
6 *544:A *536:A 4.99072e-05
7 *544:A *558:A 6.32644e-05
8 *544:A *566:A 3.5765e-05
9 *544:A *575:A 0.000115208
*RES
1 A[13] *544:A 25.6095 
*END

*D_NET *6 0.00242587
*CONN
*P A[14] I
*I *545:A I *D sky130_fd_sc_hd__buf_1
*CAP
1 A[14] 0.000735718
2 *545:A 0.000735718
3 *545:A Sum[0] 0.000265267
4 *545:A *505:A 3.19972e-05
5 *545:A *514:A 9.83442e-05
6 *545:A *522:A 0.00010371
7 *545:A *524:A 6.31912e-05
8 *545:A *119:12 7.6644e-05
9 *545:A *155:14 0.000302842
10 *545:A *170:16 1.24368e-05
*RES
1 A[14] *545:A 29.6962 
*END

*D_NET *7 0.00422278
*CONN
*P A[15] I
*I *546:A I *D sky130_fd_sc_hd__dlymetal6s2s_1
*CAP
1 A[15] 0.00135783
2 *546:A 0.00135783
3 *546:A Carry[12] 0.000401715
4 *546:A *464:B 4.94455e-05
5 *546:A *532:A 0
6 *546:A *568:A 0.00014502
7 *546:A *124:10 8.82694e-05
8 *546:A *148:18 0
9 *546:A *162:20 0.000150625
10 *546:A *181:12 0.000384479
11 *501:A *546:A 0.00028756
*RES
1 A[15] *546:A 38.2252 
*END

*D_NET *8 0.00109139
*CONN
*P A[1] I
*I *547:A I *D sky130_fd_sc_hd__buf_1
*CAP
1 A[1] 0.000534813
2 *547:A 0.000534813
3 *547:A *526:A 0
4 *547:A *126:16 2.17679e-05
5 *512:A *547:A 0
*RES
1 A[1] *547:A 24.3893 
*END

*D_NET *9 0.000520032
*CONN
*P A[2] I
*I *548:A I *D sky130_fd_sc_hd__dlymetal6s2s_1
*CAP
1 A[2] 0.000180066
2 *548:A 0.000180066
3 *548:A Carry[13] 8.55687e-05
4 *548:A Sum[7] 3.71658e-05
5 *548:A *543:A 3.71658e-05
*RES
1 A[2] *548:A 19.9411 
*END

*D_NET *10 0.000903669
*CONN
*P A[3] I
*I *502:A I *D sky130_fd_sc_hd__buf_1
*CAP
1 A[3] 0.000388863
2 *502:A 0.000388863
3 *502:A Carry[8] 0
4 *502:A *527:A 0
5 *502:A *148:12 0.000125943
6 *502:A *171:20 0
*RES
1 A[3] *502:A 21.9607 
*END

*D_NET *11 0.00058088
*CONN
*P A[4] I
*I *503:A I *D sky130_fd_sc_hd__buf_1
*CAP
1 A[4] 0.000254377
2 *503:A 0.000254377
3 *503:A Carry[4] 3.60635e-05
4 *503:A *530:A 3.60635e-05
5 *503:A *559:A 0
*RES
1 A[4] *503:A 19.0336 
*END

*D_NET *12 0.00143073
*CONN
*P A[5] I
*I *504:A I *D sky130_fd_sc_hd__buf_1
*CAP
1 A[5] 0.000590876
2 *504:A 0.000590876
3 *504:A Carry[10] 5.20751e-05
4 *504:A *518:A 0
5 *504:A *540:A 0
6 *504:A *550:A 1.00887e-05
7 *504:A *579:A 0.000186817
*RES
1 A[5] *504:A 26.1571 
*END

*D_NET *13 0.00159868
*CONN
*P A[6] I
*I *505:A I *D sky130_fd_sc_hd__buf_1
*CAP
1 A[6] 0.000455154
2 *505:A 0.000455154
3 *505:A Sum[0] 0.000105162
4 *505:A *522:A 0.000551208
5 *534:A *505:A 0
6 *545:A *505:A 3.19972e-05
*RES
1 A[6] *505:A 25.6777 
*END

*D_NET *14 0.000724279
*CONN
*P A[7] I
*I *506:A I *D sky130_fd_sc_hd__buf_1
*CAP
1 A[7] 0.000319391
2 *506:A 0.000319391
3 *506:A *514:A 0
4 *506:A *516:A 4.43067e-05
5 *506:A *541:A 4.11907e-05
6 *506:A *155:14 0
*RES
1 A[7] *506:A 21.5489 
*END

*D_NET *15 0.00333672
*CONN
*P A[8] I
*I *507:A I *D sky130_fd_sc_hd__buf_1
*CAP
1 A[8] 0.00110206
2 *507:A 0.00110206
3 *507:A Carry[1] 2.36643e-05
4 *507:A Carry[2] 0
5 *507:A Sum[2] 1.448e-05
6 *507:A Sum[3] 0.000143427
7 *507:A *488:A1 9.33521e-05
8 *507:A *515:A 0.000212591
9 *507:A *521:A 0.000222334
10 *507:A *535:A 0.000182598
11 *507:A *556:A 0.000141734
12 *507:A *574:A 9.84174e-05
*RES
1 A[8] *507:A 46.0679 
*END

*D_NET *16 0.00383189
*CONN
*P A[9] I
*I *508:A I *D sky130_fd_sc_hd__buf_1
*CAP
1 A[9] 0.00139496
2 *508:A 0.00139496
3 *508:A Carry[2] 0.000317794
4 *508:A *487:B1 0.000139163
5 *508:A *488:B1 0.00018172
6 *508:A *122:8 0.000359696
7 *508:A *167:18 2.18985e-05
8 *508:A *185:16 2.1692e-05
*RES
1 A[9] *508:A 41.9429 
*END

*D_NET *17 0.000527813
*CONN
*P B[0] I
*I *509:A I *D sky130_fd_sc_hd__dlymetal6s2s_1
*CAP
1 B[0] 0.000184073
2 *509:A 0.000184073
3 *509:A Sum[15] 7.55258e-05
4 *509:A *513:A 6.29992e-05
5 *509:A *127:24 2.11419e-05
*RES
1 B[0] *509:A 18.1229 
*END

*D_NET *18 0.0018574
*CONN
*P B[10] I
*I *510:A I *D sky130_fd_sc_hd__buf_1
*CAP
1 B[10] 0.000549671
2 *510:A 0.000549671
3 *510:A Carry[12] 7.95028e-05
4 *510:A Sum[12] 0
5 *510:A *495:A1 0
6 *510:A *495:A2 0
7 *510:A *525:A 0.000352155
8 *510:A *543:A 7.69163e-05
9 *510:A *159:10 0
10 *510:A *162:20 0.000249486
*RES
1 B[10] *510:A 26.9264 
*END

*D_NET *19 0.00241264
*CONN
*P B[11] I
*I *511:A I *D sky130_fd_sc_hd__buf_1
*CAP
1 B[11] 0.000718862
2 *511:A 0.000718862
3 *511:A Carry[10] 0.00022207
4 *511:A Sum[5] 0
5 *511:A Sum[8] 0.000419515
6 *511:A *490:B1 3.67279e-06
7 *511:A *518:A 0.000329659
*RES
1 B[11] *511:A 27.6165 
*END

*D_NET *20 0.00108478
*CONN
*P B[12] I
*I *513:A I *D sky130_fd_sc_hd__dlymetal6s2s_1
*CAP
1 B[12] 0.000380297
2 *513:A 0.000380297
3 *513:A *520:A 5.73409e-05
4 *513:A *529:A 4.39463e-05
5 *513:A *127:24 0.000159901
6 *509:A *513:A 6.29992e-05
*RES
1 B[12] *513:A 20.5521 
*END

*D_NET *21 0.00235357
*CONN
*P B[13] I
*I *514:A I *D sky130_fd_sc_hd__buf_1
*CAP
1 B[13] 0.000963059
2 *514:A 0.000963059
3 *514:A *522:A 0
4 *514:A *524:A 0.000241614
5 *514:A *539:A 0
6 *514:A *541:A 6.51464e-05
7 *514:A *170:16 2.2351e-05
8 *506:A *514:A 0
9 *545:A *514:A 9.83442e-05
*RES
1 B[13] *514:A 32.8357 
*END

*D_NET *22 0.00297193
*CONN
*P B[14] I
*I *515:A I *D sky130_fd_sc_hd__dlymetal6s2s_1
*CAP
1 B[14] 0.000649222
2 *515:A 0.000649222
3 *515:A *488:A1 0.000227687
4 *515:A *488:A2 0.000267731
5 *515:A *520:A 5.3944e-05
6 *515:A *521:A 6.47181e-05
7 *515:A *526:A 3.08664e-05
8 *515:A *535:A 9.82112e-05
9 *515:A *556:A 2.18902e-05
10 *515:A *564:A 0.000138726
11 *515:A *574:A 2.12733e-05
12 *515:A *129:14 1.17091e-05
13 *515:A *140:8 0.000524141
14 *507:A *515:A 0.000212591
*RES
1 B[14] *515:A 30.605 
*END

*D_NET *23 0.00065271
*CONN
*P B[15] I
*I *516:A I *D sky130_fd_sc_hd__buf_1
*CAP
1 B[15] 0.000283175
2 *516:A 0.000283175
3 *506:A *516:A 4.43067e-05
4 *523:A *516:A 4.20532e-05
*RES
1 B[15] *516:A 21.1203 
*END

*D_NET *24 0.000718491
*CONN
*P B[1] I
*I *517:A I *D sky130_fd_sc_hd__buf_1
*CAP
1 B[1] 0.000274379
2 *517:A 0.000274379
3 *517:A Carry[14] 3.60635e-05
4 *517:A *530:A 3.60635e-05
5 *517:A *144:8 9.76057e-05
*RES
1 B[1] *517:A 20.2479 
*END

*D_NET *25 0.00304034
*CONN
*P B[2] I
*I *518:A I *D sky130_fd_sc_hd__buf_1
*CAP
1 B[2] 0.00102674
2 *518:A 0.00102674
3 *518:A Carry[10] 0.000657202
4 *504:A *518:A 0
5 *511:A *518:A 0.000329659
*RES
1 B[2] *518:A 30.8684 
*END

*D_NET *26 0.00102236
*CONN
*P B[3] I
*I *519:A I *D sky130_fd_sc_hd__buf_1
*CAP
1 B[3] 0.000440311
2 *519:A 0.000440311
3 *519:A Sum[6] 0
4 *519:A *537:A 0
5 *519:A *148:12 0.000141734
*RES
1 B[3] *519:A 22.6571 
*END

*D_NET *27 0.00180842
*CONN
*P B[4] I
*I *520:A I *D sky130_fd_sc_hd__buf_1
*CAP
1 B[4] 0.000761095
2 *520:A 0.000761095
3 *520:A *529:A 0.000115148
4 *520:A *574:A 4.85049e-06
5 *520:A *127:24 5.49489e-05
6 *513:A *520:A 5.73409e-05
7 *515:A *520:A 5.3944e-05
*RES
1 B[4] *520:A 27.8359 
*END

*D_NET *28 0.00411796
*CONN
*P B[5] I
*I *521:A I *D sky130_fd_sc_hd__buf_1
*CAP
1 B[5] 0.00134403
2 *521:A 0.00134403
3 *521:A Carry[1] 5.16469e-05
4 *521:A Carry[9] 0.000261858
5 *521:A *459:A 1.58435e-05
6 *521:A *491:B1 0.000156993
7 *521:A *535:A 0
8 *521:A *121:16 0.000121842
9 *521:A *125:25 4.42686e-05
10 *521:A *137:28 9.58126e-05
11 *521:A *167:18 0.000394587
12 *507:A *521:A 0.000222334
13 *515:A *521:A 6.47181e-05
*RES
1 B[5] *521:A 31.1037 
*END

*D_NET *29 0.00279288
*CONN
*P B[6] I
*I *522:A I *D sky130_fd_sc_hd__buf_1
*CAP
1 B[6] 0.000807146
2 *522:A 0.000807146
3 *522:A *524:A 0.000128684
4 *522:A *539:A 0.000223738
5 *522:A *170:16 9.99853e-05
6 *522:A *176:14 7.12615e-05
7 *505:A *522:A 0.000551208
8 *514:A *522:A 0
9 *545:A *522:A 0.00010371
*RES
1 B[6] *522:A 32.4429 
*END

*D_NET *30 0.00183112
*CONN
*P B[7] I
*I *524:A I *D sky130_fd_sc_hd__buf_1
*CAP
1 B[7] 0.000588466
2 *524:A 0.000588466
3 *524:A *484:A1 1.8461e-05
4 *524:A *541:A 0.000105837
5 *524:A *128:14 5.52238e-05
6 *524:A *170:16 4.11774e-05
7 *514:A *524:A 0.000241614
8 *522:A *524:A 0.000128684
9 *545:A *524:A 6.31912e-05
*RES
1 B[7] *524:A 27.4073 
*END

*D_NET *31 0.00322543
*CONN
*P B[8] I
*I *525:A I *D sky130_fd_sc_hd__buf_1
*CAP
1 B[8] 0.00102316
2 *525:A 0.00102316
3 *525:A Carry[5] 0
4 *525:A Sum[12] 0
5 *525:A *463:A 5.33005e-05
6 *525:A *463:B 2.28499e-05
7 *525:A *464:B 9.80173e-05
8 *525:A *469:B1 0
9 *525:A *496:B1 0.000227539
10 *525:A *553:A 0.000139913
11 *525:A *128:20 0.000154511
12 *525:A *128:24 3.37161e-05
13 *525:A *162:20 9.71197e-05
14 *510:A *525:A 0.000352155
*RES
1 B[8] *525:A 34.7464 
*END

*D_NET *32 0.00179482
*CONN
*P B[9] I
*I *526:A I *D sky130_fd_sc_hd__buf_1
*CAP
1 B[9] 0.000638253
2 *526:A 0.000638253
3 *526:A Carry[1] 0
4 *526:A *556:A 0.000271904
5 *526:A *129:14 9.431e-05
6 *526:A *149:22 0.00012123
7 *515:A *526:A 3.08664e-05
8 *547:A *526:A 0
*RES
1 B[9] *526:A 27.8 
*END

*D_NET *33 0.000926175
*CONN
*P C[0] I
*I *527:A I *D sky130_fd_sc_hd__buf_1
*CAP
1 C[0] 0.000460399
2 *527:A 0.000460399
3 *527:A Sum[13] 0
4 *527:A *115:14 0
5 *527:A *171:20 5.37741e-06
6 *502:A *527:A 0
*RES
1 C[0] *527:A 21.8357 
*END

*D_NET *34 0.000989284
*CONN
*P C[10] I
*I *528:A I *D sky130_fd_sc_hd__buf_1
*CAP
1 C[10] 0.000394104
2 *528:A 0.000394104
3 *528:A Carry[0] 3.9512e-05
4 *528:A Sum[4] 0
5 *528:A *536:A 0.000161564
6 *544:A *528:A 0
*RES
1 C[10] *528:A 21.3591 
*END

*D_NET *35 0.000736478
*CONN
*P C[11] I
*I *529:A I *D sky130_fd_sc_hd__buf_1
*CAP
1 C[11] 0.000288691
2 *529:A 0.000288691
3 *513:A *529:A 4.39463e-05
4 *520:A *529:A 0.000115148
*RES
1 C[11] *529:A 21.531 
*END

*D_NET *36 0.000590425
*CONN
*P C[12] I
*I *530:A I *D sky130_fd_sc_hd__buf_1
*CAP
1 C[12] 0.000259149
2 *530:A 0.000259149
3 *530:A *144:8 0
4 *503:A *530:A 3.60635e-05
5 *517:A *530:A 3.60635e-05
*RES
1 C[12] *530:A 21.1554 
*END

*D_NET *37 0.0030001
*CONN
*P C[13] I
*I *531:A I *D sky130_fd_sc_hd__buf_1
*CAP
1 C[13] 0.00146442
2 *531:A 0.00146442
3 *531:A Carry[4] 7.12692e-05
4 *531:A Sum[4] 0
*RES
1 C[13] *531:A 42.3179 
*END

*D_NET *38 0.00267893
*CONN
*P C[14] I
*I *532:A I *D sky130_fd_sc_hd__buf_1
*CAP
1 C[14] 0.000557665
2 *532:A 0.000557665
3 *532:A Carry[12] 0.000370586
4 *532:A Sum[13] 0
5 *532:A *543:A 3.34295e-05
6 *532:A *560:A 3.48705e-05
7 *532:A *569:A 0.000274019
8 *532:A *115:14 6.12434e-05
9 *532:A *157:14 0.000620536
10 *532:A *171:20 0.000168915
11 *501:A *532:A 0
12 *546:A *532:A 0
*RES
1 C[14] *532:A 29.8 
*END

*D_NET *39 0.00191232
*CONN
*P C[15] I
*I *533:A I *D sky130_fd_sc_hd__buf_1
*CAP
1 C[15] 0.000680534
2 *533:A 0.000680534
3 *533:A Sum[6] 0
4 *533:A *119:20 3.52311e-05
5 *533:A *157:14 0.000244241
6 *533:A *172:12 0.000121254
7 *534:A *533:A 0.00015052
*RES
1 C[15] *533:A 27.8893 
*END

*D_NET *40 0.00186023
*CONN
*P C[1] I
*I *535:A I *D sky130_fd_sc_hd__buf_1
*CAP
1 C[1] 0.000505477
2 *535:A 0.000505477
3 *535:A Carry[1] 0
4 *535:A Carry[6] 0.000169095
5 *535:A Carry[9] 0.000328633
6 *535:A Sum[3] 0
7 *535:A *149:22 7.07372e-05
8 *507:A *535:A 0.000182598
9 *515:A *535:A 9.82112e-05
10 *521:A *535:A 0
*RES
1 C[1] *535:A 35.9786 
*END

*D_NET *41 0.00160699
*CONN
*P C[2] I
*I *536:A I *D sky130_fd_sc_hd__buf_1
*CAP
1 C[2] 0.000624558
2 *536:A 0.000624558
3 *536:A Sum[4] 0
4 *536:A *549:A 0.000146404
5 *528:A *536:A 0.000161564
6 *544:A *536:A 4.99072e-05
*RES
1 C[2] *536:A 27.1037 
*END

*D_NET *42 0.000921882
*CONN
*P C[3] I
*I *537:A I *D sky130_fd_sc_hd__buf_1
*CAP
1 C[3] 0.000460941
2 *537:A 0.000460941
3 *537:A Sum[1] 0
4 *519:A *537:A 0
*RES
1 C[3] *537:A 24.2464 
*END

*D_NET *43 0.0017076
*CONN
*P C[4] I
*I *538:A I *D sky130_fd_sc_hd__buf_1
*CAP
1 C[4] 0.000550676
2 *538:A 0.000550676
3 *538:A Carry[7] 6.45956e-05
4 *538:A Sum[7] 3.45861e-05
5 *538:A *493:A2 5.33005e-05
6 *538:A *493:B1 0.000312303
7 *538:A *562:A 8.6131e-05
8 *538:A *162:20 5.53307e-05
*RES
1 C[4] *538:A 25.5686 
*END

*D_NET *44 0.00243231
*CONN
*P C[5] I
*I *539:A I *D sky130_fd_sc_hd__buf_1
*CAP
1 C[5] 0.00104506
2 *539:A 0.00104506
3 *539:A Sum[0] 2.23592e-05
4 *539:A *541:A 0
5 *539:A *176:14 9.60875e-05
6 *514:A *539:A 0
7 *522:A *539:A 0.000223738
*RES
1 C[5] *539:A 34.0857 
*END

*D_NET *45 0.00106983
*CONN
*P C[6] I
*I *540:A I *D sky130_fd_sc_hd__buf_1
*CAP
1 C[6] 0.000534914
2 *540:A 0.000534914
3 *540:A Carry[15] 0
4 *504:A *540:A 0
*RES
1 C[6] *540:A 24.3893 
*END

*D_NET *46 0.000818909
*CONN
*P C[7] I
*I *541:A I *D sky130_fd_sc_hd__buf_1
*CAP
1 C[7] 0.000303368
2 *541:A 0.000303368
3 *506:A *541:A 4.11907e-05
4 *514:A *541:A 6.51464e-05
5 *524:A *541:A 0.000105837
6 *539:A *541:A 0
*RES
1 C[7] *541:A 21.5489 
*END

*D_NET *47 0.000518121
*CONN
*P C[8] I
*I *542:A I *D sky130_fd_sc_hd__buf_1
*CAP
1 C[8] 0.000215114
2 *542:A 0.000215114
3 *542:A Sum[9] 4.39463e-05
4 *523:A *542:A 4.39463e-05
*RES
1 C[8] *542:A 20.031 
*END

*D_NET *48 0.00259987
*CONN
*P C[9] I
*I *543:A I *D sky130_fd_sc_hd__buf_1
*CAP
1 C[9] 0.00114205
2 *543:A 0.00114205
3 *543:A Carry[12] 3.27335e-05
4 *543:A *569:A 0.000135528
5 *510:A *543:A 7.69163e-05
6 *532:A *543:A 3.34295e-05
7 *548:A *543:A 3.71658e-05
*RES
1 C[9] *543:A 21.2262 
*END

*D_NET *49 0.000839664
*CONN
*P Carry[0] O
*I *549:X O *D sky130_fd_sc_hd__clkbuf_4
*CAP
1 Carry[0] 0.000383166
2 *549:X 0.000383166
3 Carry[0] Carry[4] 3.38206e-05
4 Carry[0] *159:10 0
5 *528:A Carry[0] 3.9512e-05
*RES
1 *549:X Carry[0] 19.4092 
*END

*D_NET *50 0.00220708
*CONN
*P Carry[10] O
*I *550:X O *D sky130_fd_sc_hd__clkbuf_4
*CAP
1 Carry[10] 0.000581326
2 *550:X 0.000581326
3 Carry[10] Sum[5] 0
4 Carry[10] *576:A 1.99271e-05
5 Carry[10] *579:A 9.31523e-05
6 *504:A Carry[10] 5.20751e-05
7 *511:A Carry[10] 0.00022207
8 *518:A Carry[10] 0.000657202
*RES
1 *550:X Carry[10] 27.3536 
*END

*D_NET *51 0.00138929
*CONN
*P Carry[11] O
*I *551:X O *D sky130_fd_sc_hd__clkbuf_4
*CAP
1 Carry[11] 0.000619862
2 *551:X 0.000619862
3 Carry[11] Carry[15] 0
4 Carry[11] *555:A 0.000149562
5 *512:A Carry[11] 0
*RES
1 *551:X Carry[11] 26.0143 
*END

*D_NET *52 0.00240206
*CONN
*P Carry[12] O
*I *552:X O *D sky130_fd_sc_hd__clkbuf_4
*CAP
1 Carry[12] 0.000684841
2 *552:X 0.000684841
3 Carry[12] *568:A 0.000147836
4 *510:A Carry[12] 7.95028e-05
5 *532:A Carry[12] 0.000370586
6 *543:A Carry[12] 3.27335e-05
7 *546:A Carry[12] 0.000401715
*RES
1 *552:X Carry[12] 25.5635 
*END

*D_NET *53 0.00405673
*CONN
*P Carry[13] O
*I *553:X O *D sky130_fd_sc_hd__clkbuf_4
*CAP
1 Carry[13] 0.00160223
2 *553:X 0.00160223
3 Carry[13] Carry[5] 0
4 Carry[13] *162:20 2.32625e-05
5 Carry[13] *194:10 0.000743433
6 *548:A Carry[13] 8.55687e-05
*RES
1 *553:X Carry[13] 41.5679 
*END

*D_NET *54 0.000510019
*CONN
*P Carry[14] O
*I *554:X O *D sky130_fd_sc_hd__clkbuf_4
*CAP
1 Carry[14] 0.000220067
2 *554:X 0.000220067
3 Carry[14] Carry[7] 3.38206e-05
4 Carry[14] *144:8 0
5 *517:A Carry[14] 3.60635e-05
*RES
1 *554:X Carry[14] 20.2447 
*END

*D_NET *55 0.00103278
*CONN
*P Carry[15] O
*I *555:X O *D sky130_fd_sc_hd__clkbuf_4
*CAP
1 Carry[15] 0.000516389
2 *555:X 0.000516389
3 Carry[11] Carry[15] 0
4 *540:A Carry[15] 0
*RES
1 *555:X Carry[15] 24.0857 
*END

*D_NET *56 0.00177178
*CONN
*P Carry[1] O
*I *556:X O *D sky130_fd_sc_hd__clkbuf_4
*CAP
1 Carry[1] 0.000691028
2 *556:X 0.000691028
3 Carry[1] *556:A 0.000314416
4 *507:A Carry[1] 2.36643e-05
5 *521:A Carry[1] 5.16469e-05
6 *526:A Carry[1] 0
7 *535:A Carry[1] 0
*RES
1 *556:X Carry[1] 26.5321 
*END

*D_NET *57 0.00191192
*CONN
*P Carry[2] O
*I *557:X O *D sky130_fd_sc_hd__clkbuf_4
*CAP
1 Carry[2] 0.000797061
2 *557:X 0.000797061
3 *507:A Carry[2] 0
4 *508:A Carry[2] 0.000317794
*RES
1 *557:X Carry[2] 28.55 
*END

*D_NET *58 0.00101589
*CONN
*P Carry[3] O
*I *558:X O *D sky130_fd_sc_hd__clkbuf_4
*CAP
1 Carry[3] 0.000507943
2 *558:X 0.000507943
3 Carry[3] Sum[10] 0
4 Carry[3] Sum[5] 0
*RES
1 *558:X Carry[3] 23.425 
*END

*D_NET *59 0.000816339
*CONN
*P Carry[4] O
*I *559:X O *D sky130_fd_sc_hd__clkbuf_4
*CAP
1 Carry[4] 0.000337593
2 *559:X 0.000337593
3 Carry[4] *559:A 0
4 Carry[0] Carry[4] 3.38206e-05
5 *503:A Carry[4] 3.60635e-05
6 *531:A Carry[4] 7.12692e-05
*RES
1 *559:X Carry[4] 22.1732 
*END

*D_NET *60 0.00288607
*CONN
*P Carry[5] O
*I *560:X O *D sky130_fd_sc_hd__clkbuf_4
*CAP
1 Carry[5] 0.000839195
2 *560:X 0.000839195
3 Carry[5] *568:A 7.61932e-05
4 Carry[5] *115:14 0.000609045
5 Carry[13] Carry[5] 0
6 *501:A Carry[5] 0.000522439
7 *525:A Carry[5] 0
*RES
1 *560:X Carry[5] 32.7286 
*END

*D_NET *61 0.00289547
*CONN
*P Carry[6] O
*I *561:X O *D sky130_fd_sc_hd__clkbuf_4
*CAP
1 Carry[6] 0.000910457
2 *561:X 0.000910457
3 Carry[6] Carry[9] 0.000328927
4 Carry[6] Sum[3] 0.000499491
5 Carry[6] *149:22 7.70462e-05
6 *535:A Carry[6] 0.000169095
*RES
1 *561:X Carry[6] 30.6688 
*END

*D_NET *62 0.000607507
*CONN
*P Carry[7] O
*I *562:X O *D sky130_fd_sc_hd__clkbuf_4
*CAP
1 Carry[7] 0.000254545
2 *562:X 0.000254545
3 Carry[7] *162:20 0
4 Carry[14] Carry[7] 3.38206e-05
5 *538:A Carry[7] 6.45956e-05
*RES
1 *562:X Carry[7] 20.8518 
*END

*D_NET *63 0.000782536
*CONN
*P Carry[8] O
*I *563:X O *D sky130_fd_sc_hd__clkbuf_4
*CAP
1 Carry[8] 0.000391268
2 *563:X 0.000391268
3 Carry[8] Sum[14] 0
4 Carry[8] *148:12 0
5 *502:A Carry[8] 0
*RES
1 *563:X Carry[8] 21.2286 
*END

*D_NET *64 0.00414527
*CONN
*P Carry[9] O
*I *564:X O *D sky130_fd_sc_hd__clkbuf_4
*CAP
1 Carry[9] 0.00133363
2 *564:X 0.00133363
3 Carry[9] *455:A 5.49489e-05
4 Carry[9] *455:B 1.34548e-05
5 Carry[9] *491:B1 7.92229e-06
6 Carry[9] *561:A 0.000101915
7 Carry[9] *564:A 5.65955e-05
8 Carry[9] *143:6 3.93302e-05
9 Carry[9] *167:18 0.00018265
10 Carry[9] *185:16 0.000101771
11 Carry[6] Carry[9] 0.000328927
12 *521:A Carry[9] 0.000261858
13 *535:A Carry[9] 0.000328633
*RES
1 *564:X Carry[9] 34.9928 
*END

*D_NET *65 0.00214332
*CONN
*P Sum[0] O
*I *565:X O *D sky130_fd_sc_hd__clkbuf_4
*CAP
1 Sum[0] 0.000749826
2 *565:X 0.000749826
3 Sum[0] *119:12 7.83587e-05
4 Sum[0] *155:14 7.83587e-05
5 Sum[0] *157:14 0
6 Sum[0] *176:14 9.41642e-05
7 *505:A Sum[0] 0.000105162
8 *534:A Sum[0] 0
9 *539:A Sum[0] 2.23592e-05
10 *545:A Sum[0] 0.000265267
*RES
1 *565:X Sum[0] 28.4124 
*END

*D_NET *66 0.00107799
*CONN
*P Sum[10] O
*I *566:X O *D sky130_fd_sc_hd__clkbuf_4
*CAP
1 Sum[10] 0.000538994
2 *566:X 0.000538994
3 Sum[10] Sum[4] 0
4 Carry[3] Sum[10] 0
*RES
1 *566:X Sum[10] 23.9607 
*END

*D_NET *67 0.00068095
*CONN
*P Sum[11] O
*I *567:X O *D sky130_fd_sc_hd__clkbuf_4
*CAP
1 Sum[11] 0.000271156
2 *567:X 0.000271156
3 Sum[11] Sum[15] 5.42917e-05
4 Sum[11] Sum[9] 6.50794e-05
5 Sum[11] *127:24 1.92656e-05
*RES
1 *567:X Sum[11] 19.2657 
*END

*D_NET *68 0.00112877
*CONN
*P Sum[12] O
*I *568:X O *D sky130_fd_sc_hd__clkbuf_4
*CAP
1 Sum[12] 0.000459889
2 *568:X 0.000459889
3 Sum[12] *495:A1 8.50152e-05
4 Sum[12] *495:B1 5.52302e-05
5 Sum[12] *148:18 0
6 *501:A Sum[12] 6.87476e-05
7 *510:A Sum[12] 0
8 *525:A Sum[12] 0
*RES
1 *568:X Sum[12] 22.7643 
*END

*D_NET *69 0.00111441
*CONN
*P Sum[13] O
*I *569:X O *D sky130_fd_sc_hd__clkbuf_4
*CAP
1 Sum[13] 0.000557207
2 *569:X 0.000557207
3 *527:A Sum[13] 0
4 *532:A Sum[13] 0
*RES
1 *569:X Sum[13] 22.05 
*END

*D_NET *70 0.000843039
*CONN
*P Sum[14] O
*I *570:X O *D sky130_fd_sc_hd__clkbuf_4
*CAP
1 Sum[14] 0.000421519
2 *570:X 0.000421519
3 Sum[14] Sum[1] 0
4 Carry[8] Sum[14] 0
*RES
1 *570:X Sum[14] 21.8893 
*END

*D_NET *71 0.000729108
*CONN
*P Sum[15] O
*I *571:X O *D sky130_fd_sc_hd__clkbuf_4
*CAP
1 Sum[15] 0.000290691
2 *571:X 0.000290691
3 Sum[15] *567:A 7.7159e-06
4 Sum[15] *127:24 1.01912e-05
5 Sum[11] Sum[15] 5.42917e-05
6 *509:A Sum[15] 7.55258e-05
*RES
1 *571:X Sum[15] 18.3955 
*END

*D_NET *72 0.000702711
*CONN
*P Sum[1] O
*I *572:X O *D sky130_fd_sc_hd__clkbuf_4
*CAP
1 Sum[1] 0.000351355
2 *572:X 0.000351355
3 Sum[14] Sum[1] 0
4 *537:A Sum[1] 0
*RES
1 *572:X Sum[1] 20.6929 
*END

*D_NET *73 0.00267223
*CONN
*P Sum[2] O
*I *573:X O *D sky130_fd_sc_hd__clkbuf_4
*CAP
1 Sum[2] 0.00100198
2 *573:X 0.00100198
3 Sum[2] Sum[3] 0
4 Sum[2] *487:B1 0.000334952
5 Sum[2] *488:B1 3.64012e-05
6 Sum[2] *564:A 0.000282426
7 *507:A Sum[2] 1.448e-05
*RES
1 *573:X Sum[2] 34.5679 
*END

*D_NET *74 0.00158791
*CONN
*P Sum[3] O
*I *574:X O *D sky130_fd_sc_hd__clkbuf_4
*CAP
1 Sum[3] 0.000454265