*SPEF "ieee 1481-1999"
*DESIGN "rca"
*DATE "11:11:11 Fri 11 11, 1111"
*VENDOR "OpenRCX"
*PROGRAM "Parallel Extraction"
*VERSION "1.0"
*DESIGN_FLOW "NAME_SCOPE LOCAL" "PIN_CAP NONE"
*DIVIDER /
*DELIMITER :
*BUS_DELIMITER []
*T_UNIT 1 NS
*C_UNIT 1 PF
*R_UNIT 1 OHM
*L_UNIT 1 HENRY

*NAME_MAP
*1 A[0]
*2 A[1]
*3 A[2]
*4 A[3]
*5 A[4]
*6 A[5]
*7 A[6]
*8 A[7]
*9 B[0]
*10 B[1]
*11 B[2]
*12 B[3]
*13 B[4]
*14 B[5]
*15 B[6]
*16 B[7]
*17 SUM[0]
*18 SUM[1]
*19 SUM[2]
*20 SUM[3]
*21 SUM[4]
*22 SUM[5]
*23 SUM[6]
*24 SUM[7]
*27 _00_
*28 _01_
*29 _02_
*30 _03_
*31 _04_
*32 _05_
*33 _06_
*34 _07_
*35 _08_
*36 _09_
*37 _10_
*38 _11_
*39 _12_
*40 _13_
*41 _14_
*42 _15_
*43 _16_
*44 _17_
*45 _18_
*46 _19_
*47 _20_
*48 _21_
*49 _22_
*50 _23_
*51 _24_
*52 _25_
*53 net1
*54 net10
*55 net11
*56 net12
*57 net13
*58 net14
*59 net15
*60 net16
*61 net17
*62 net18
*63 net19
*64 net2
*65 net20
*66 net21
*67 net22
*68 net23
*69 net24
*70 net3
*71 net4
*72 net5
*73 net6
*74 net7
*75 net8
*76 net9
*77 FILLER_0_0_12
*78 FILLER_0_0_27
*79 FILLER_0_0_29
*80 FILLER_0_0_41
*81 FILLER_0_0_51
*82 FILLER_0_0_55
*83 FILLER_0_0_57
*84 FILLER_0_0_62
*85 FILLER_0_10_21
*86 FILLER_0_10_27
*87 FILLER_0_10_29
*88 FILLER_0_10_41
*89 FILLER_0_10_49
*90 FILLER_0_10_64
*91 FILLER_0_10_9
*92 FILLER_0_11_15
*93 FILLER_0_11_20
*94 FILLER_0_11_29
*95 FILLER_0_11_34
*96 FILLER_0_11_46
*97 FILLER_0_11_54
*98 FILLER_0_11_57
*99 FILLER_0_1_15
*100 FILLER_0_1_27
*101 FILLER_0_1_3
*102 FILLER_0_1_39
*103 FILLER_0_1_51
*104 FILLER_0_1_55
*105 FILLER_0_1_57
*106 FILLER_0_1_69
*107 FILLER_0_2_24
*108 FILLER_0_2_42
*109 FILLER_0_2_6
*110 FILLER_0_2_62
*111 FILLER_0_2_70
*112 FILLER_0_3_11
*113 FILLER_0_3_25
*114 FILLER_0_3_3
*115 FILLER_0_3_37
*116 FILLER_0_3_49
*117 FILLER_0_3_53
*118 FILLER_0_3_61
*119 FILLER_0_3_69
*120 FILLER_0_4_15
*121 FILLER_0_4_23
*122 FILLER_0_4_3
*123 FILLER_0_4_39
*124 FILLER_0_4_43
*125 FILLER_0_4_64
*126 FILLER_0_5_18
*127 FILLER_0_5_30
*128 FILLER_0_5_42
*129 FILLER_0_5_54
*130 FILLER_0_5_6
*131 FILLER_0_5_64
*132 FILLER_0_6_16
*133 FILLER_0_6_29
*134 FILLER_0_6_3
*135 FILLER_0_6_41
*136 FILLER_0_6_53
*137 FILLER_0_6_65
*138 FILLER_0_6_71
*139 FILLER_0_7_21
*140 FILLER_0_7_3
*141 FILLER_0_7_33
*142 FILLER_0_7_45
*143 FILLER_0_7_53
*144 FILLER_0_7_57
*145 FILLER_0_8_18
*146 FILLER_0_8_23
*147 FILLER_0_8_27
*148 FILLER_0_8_29
*149 FILLER_0_8_35
*150 FILLER_0_8_43
*151 FILLER_0_8_51
*152 FILLER_0_8_59
*153 FILLER_0_8_71
*154 FILLER_0_8_9
*155 FILLER_0_9_14
*156 FILLER_0_9_29
*157 FILLER_0_9_3
*158 FILLER_0_9_45
*159 FILLER_0_9_64
*160 PHY_0
*161 PHY_1
*162 PHY_10
*163 PHY_11
*164 PHY_12
*165 PHY_13
*166 PHY_14
*167 PHY_15
*168 PHY_16
*169 PHY_17
*170 PHY_18
*171 PHY_19
*172 PHY_2
*173 PHY_20
*174 PHY_21
*175 PHY_22
*176 PHY_23
*177 PHY_3
*178 PHY_4
*179 PHY_5
*180 PHY_6
*181 PHY_7
*182 PHY_8
*183 PHY_9
*184 TAP_24
*185 TAP_25
*186 TAP_26
*187 TAP_27
*188 TAP_28
*189 TAP_29
*190 TAP_30
*191 TAP_31
*192 TAP_32
*193 TAP_33
*194 TAP_34
*195 TAP_35
*196 TAP_36
*197 TAP_37
*198 _26_
*199 _27_
*200 _28_
*201 _29_
*202 _30_
*203 _31_
*204 _32_
*205 _33_
*206 _34_
*207 _35_
*208 _36_
*209 _37_
*210 _38_
*211 _39_
*212 _40_
*213 _41_
*214 _42_
*215 _43_
*216 _44_
*217 _45_
*218 _46_
*219 _47_
*220 _48_
*221 _49_
*222 _50_
*223 _51_
*224 _52_
*225 _53_
*226 _54_
*227 _55_
*228 _56_
*229 _57_
*230 _58_
*231 _59_
*232 input1
*233 input10
*234 input11
*235 input12
*236 input13
*237 input14
*238 input15
*239 input16
*240 input2
*241 input3
*242 input4
*243 input5
*244 input6
*245 input7
*246 input8
*247 input9
*248 output17
*249 output18
*250 output19
*251 output20
*252 output21
*253 output22
*254 output23
*255 output24

*PORTS
A[0] I
A[1] I
A[2] I
A[3] I
A[4] I
A[5] I
A[6] I
A[7] I
B[0] I
B[1] I
B[2] I
B[3] I
B[4] I
B[5] I
B[6] I
B[7] I
SUM[0] O
SUM[1] O
SUM[2] O
SUM[3] O
SUM[4] O
SUM[5] O
SUM[6] O
SUM[7] O

*D_NET *1 0.00124276
*CONN
*P A[0] I
*I *232:A I *D sky130_fd_sc_hd__dlymetal6s2s_1
*CAP
1 A[0] 0.000572209
2 *232:A 0.000572209
3 *232:A *245:A 9.83388e-05
*RES
1 A[0] *232:A 24.7286 
*END

*D_NET *2 0.000469287
*CONN
*P A[1] I
*I *240:A I *D sky130_fd_sc_hd__buf_1
*CAP
1 A[1] 0.000234643
2 *240:A 0.000234643
3 *240:A *247:A 0
*RES
1 A[1] *240:A 19.9411 
*END

*D_NET *3 0.00117433
*CONN
*P A[2] I
*I *241:A I *D sky130_fd_sc_hd__clkbuf_1
*CAP
1 A[2] 0.000389199
2 *241:A 0.000389199
3 *241:A SUM[6] 0.000395931
*RES
1 A[2] *241:A 23.7821 
*END

*D_NET *4 0.00223129
*CONN
*P A[3] I
*I *242:A I *D sky130_fd_sc_hd__buf_1
*CAP
1 A[3] 0.000906578
2 *242:A 0.000906578
3 *242:A SUM[3] 0
4 *242:A *53:14 0.000147041
5 *242:A *71:10 9.82112e-05
6 *242:A *74:16 0.000172877
*RES
1 A[3] *242:A 29.4137 
*END

*D_NET *5 0.000473971
*CONN
*P A[4] I
*I *243:A I *D sky130_fd_sc_hd__buf_1
*CAP
1 A[4] 0.000236985
2 *243:A 0.000236985
3 *243:A SUM[1] 0
*RES
1 A[4] *243:A 19.9589 
*END

*D_NET *6 0.00116139
*CONN
*P A[5] I
*I *244:A I *D sky130_fd_sc_hd__buf_1
*CAP
1 A[5] 0.00041018
2 *244:A 0.00041018
3 *244:A *234:A 0.000141729
4 *244:A *238:A 8.3147e-05
5 *244:A *55:18 5.50313e-05
6 *244:A *59:14 6.11199e-05
*RES
1 A[5] *244:A 23.6024 
*END

*D_NET *7 0.0022703
*CONN
*P A[6] I
*I *245:A I *D sky130_fd_sc_hd__buf_1
*CAP
1 A[6] 0.00108598
2 *245:A 0.00108598
3 *232:A *245:A 9.83388e-05
*RES
1 A[6] *245:A 33.7643 
*END

*D_NET *8 0.0012423
*CONN
*P A[7] I
*I *246:A I *D sky130_fd_sc_hd__clkbuf_1
*CAP
1 A[7] 0.000325947
2 *246:A 0.000325947
3 *246:A *238:A 0.000590404
*RES
1 A[7] *246:A 24.2464 
*END

*D_NET *9 0.000623502
*CONN
*P B[0] I
*I *247:A I *D sky130_fd_sc_hd__buf_1
*CAP
1 B[0] 0.000311751
2 *247:A 0.000311751
3 *240:A *247:A 0
*RES
1 B[0] *247:A 21.4589 
*END

*D_NET *10 0.00118274
*CONN
*P B[1] I
*I *233:A I *D sky130_fd_sc_hd__clkbuf_1
*CAP
1 B[1] 0.000478512
2 *233:A 0.000478512
3 *233:A *235:A 0.000170481
4 *233:A *236:A 5.52302e-05
*RES
1 B[1] *233:A 25.5482 
*END

*D_NET *11 0.00127183
*CONN
*P B[2] I
*I *234:A I *D sky130_fd_sc_hd__buf_1
*CAP
1 B[2] 0.000565051
2 *234:A 0.000565051
3 *244:A *234:A 0.000141729
*RES
1 B[2] *234:A 24.7107 
*END

*D_NET *12 0.00191441
*CONN
*P B[3] I
*I *235:A I *D sky130_fd_sc_hd__buf_1
*CAP
1 B[3] 0.000828415
2 *235:A 0.000828415
3 *235:A *236:A 5.52302e-05
4 *235:A *54:10 3.18676e-05
5 *233:A *235:A 0.000170481
*RES
1 B[3] *235:A 30.7821 
*END

*D_NET *13 0.000907358
*CONN
*P B[4] I
*I *236:A I *D sky130_fd_sc_hd__buf_1
*CAP
1 B[4] 0.000398449
2 *236:A 0.000398449
3 *233:A *236:A 5.52302e-05
4 *235:A *236:A 5.52302e-05
*RES
1 B[4] *236:A 21.8357 
*END

*D_NET *14 0.0010216
*CONN
*P B[5] I
*I *237:A I *D sky130_fd_sc_hd__buf_1
*CAP
1 B[5] 0.000510798
2 *237:A 0.000510798
*RES
1 B[5] *237:A 23.7821 
*END

*D_NET *15 0.00223123
*CONN
*P B[6] I
*I *238:A I *D sky130_fd_sc_hd__buf_1
*CAP
1 B[6] 0.000753055
2 *238:A 0.000753055
3 *238:A *59:14 5.15716e-05
4 *244:A *238:A 8.3147e-05
5 *246:A *238:A 0.000590404
*RES
1 B[6] *238:A 28.6994 
*END

*D_NET *16 0.000813598
*CONN
*P B[7] I
*I *239:A I *D sky130_fd_sc_hd__clkbuf_1
*CAP
1 B[7] 0.000406799
2 *239:A 0.000406799
*RES
1 B[7] *239:A 21.9607 
*END

*D_NET *17 0.00143463
*CONN
*P SUM[0] O
*I *248:X O *D sky130_fd_sc_hd__clkbuf_4
*CAP
1 SUM[0] 0.000717314
2 *248:X 0.000717314
3 SUM[0] SUM[2] 0
*RES
1 *248:X SUM[0] 26.3357 
*END

*D_NET *18 0.000680038
*CONN
*P SUM[1] O
*I *249:X O *D sky130_fd_sc_hd__buf_2
*CAP
1 SUM[1] 0.000340019
2 *249:X 0.000340019
3 *243:A SUM[1] 0
*RES
1 *249:X SUM[1] 20.2096 
*END

*D_NET *19 0.000981561
*CONN
*P SUM[2] O
*I *250:X O *D sky130_fd_sc_hd__clkbuf_4
*CAP
1 SUM[2] 0.00046498
2 *250:X 0.00046498
3 SUM[2] SUM[6] 0
4 SUM[2] *248:A 5.1601e-05
5 SUM[0] SUM[2] 0
*RES
1 *250:X SUM[2] 21.8378 
*END

*D_NET *20 0.00192678
*CONN
*P SUM[3] O
*I *251:X O *D sky130_fd_sc_hd__clkbuf_4
*CAP
1 SUM[3] 0.00080486
2 *251:X 0.00080486
3 SUM[3] *53:14 0.000317064
4 *242:A SUM[3] 0
*RES
1 *251:X SUM[3] 28.6036 
*END

*D_NET *21 0.00113195
*CONN
*P SUM[4] O
*I *252:X O *D sky130_fd_sc_hd__clkbuf_4
*CAP
1 SUM[4] 0.000538498
2 *252:X 0.000538498
3 SUM[4] *252:A 0
4 SUM[4] *56:12 5.49544e-05
*RES
1 *252:X SUM[4] 24.175 
*END

*D_NET *22 0.000514374
*CONN
*P SUM[5] O
*I *253:X O *D sky130_fd_sc_hd__clkbuf_4
*CAP
1 SUM[5] 0.000257187
2 *253:X 0.000257187
*RES
1 *253:X SUM[5] 20.2447 
*END

*D_NET *23 0.0024228
*CONN
*P SUM[6] O
*I *254:X O *D sky130_fd_sc_hd__buf_4
*CAP
1 SUM[6] 0.00101343
2 *254:X 0.00101343
3 SUM[2] SUM[6] 0
4 *241:A SUM[6] 0.000395931
*RES
1 *254:X SUM[6] 29.9896 
*END

*D_NET *24 0.000724971
*CONN
*P SUM[7] O
*I *255:X O *D sky130_fd_sc_hd__buf_2
*CAP
1 SUM[7] 0.000362485
2 *255:X 0.000362485
3 SUM[7] *55:18 0
*RES
1 *255:X SUM[7] 20.8167 
*END

*D_NET *27 0.00119986
*CONN
*I *202:B I *D sky130_fd_sc_hd__and3_1
*I *201:A1 I *D sky130_fd_sc_hd__a21oi_1
*I *199:X O *D sky130_fd_sc_hd__a21o_1
*CAP
1 *202:B 0.000185868
2 *201:A1 0.000287718
3 *199:X 0
4 *27:4 0.000473585
5 *201:A1 *199:A1 2.42516e-05
6 *201:A1 *199:B1 2.12647e-05
7 *201:A1 *201:A2 3.06878e-06
8 *201:A1 *203:A 1.0484e-05
9 *201:A1 *53:26 9.58632e-05
10 *202:B *202:C 1.29975e-05
11 *202:B *203:A 8.47636e-05
*RES
1 *199:X *27:4 9.3 
2 *27:4 *201:A1 12.7107 
3 *27:4 *202:B 12.3 
*END

*D_NET *28 0.00183194
*CONN
*I *202:C I *D sky130_fd_sc_hd__and3_1
*I *201:A2 I *D sky130_fd_sc_hd__a21oi_1
*I *200:Y O *D sky130_fd_sc_hd__nand3_1
*CAP
1 *202:C 0.000281029
2 *201:A2 0.000278446
3 *200:Y 0
4 *28:4 0.000559476
5 *201:A2 *199:A1 3.8617e-05
6 *201:A2 *200:B 9.96487e-05
7 *201:A2 *203:A 9.41642e-05
8 *201:A2 *64:25 9.8126e-05
9 *202:C *200:C 1.84865e-05
10 *202:C *202:A 0.000202716
11 *202:C *222:A 5.10039e-05
12 *202:C *253:A 9.41642e-05
13 *201:A1 *201:A2 3.06878e-06
14 *202:B *202:C 1.29975e-05
*RES
1 *200:Y *28:4 9.3 
2 *28:4 *201:A2 22.8536 
3 *28:4 *202:C 24.175 
*END

*D_NET *29 0.0013116
*CONN
*I *203:A I *D sky130_fd_sc_hd__nor2_1
*I *201:Y O *D sky130_fd_sc_hd__a21oi_1
*CAP
1 *203:A 0.000353227
2 *201:Y 0.000353227
3 *203:A *199:A1 9.58689e-05
4 *203:A *199:B1 4.43158e-05
5 *203:A *202:A 5.54817e-06
6 *203:A *203:B 1.24368e-05
7 *203:A *204:B 1.84865e-05
8 *203:A *204:C 3.26799e-05
9 *203:A *31:10 5.08826e-05
10 *203:A *53:26 9.85599e-06
11 *203:A *68:14 0.000145662
12 *201:A1 *203:A 1.0484e-05
13 *201:A2 *203:A 9.41642e-05
14 *202:B *203:A 8.47636e-05
*RES
1 *201:Y *203:A 35.35 
*END

*D_NET *30 0.00126719
*CONN
*I *205:C I *D sky130_fd_sc_hd__or3_1
*I *206:A2 I *D sky130_fd_sc_hd__o21ai_1
*I *203:B I *D sky130_fd_sc_hd__nor2_1
*I *202:X O *D sky130_fd_sc_hd__and3_1
*CAP
1 *205:C 9.0085e-05
2 *206:A2 0
3 *203:B 8.35048e-05
4 *202:X 6.98559e-05
5 *30:27 0.000261559
6 *30:8 0.000324835
7 *203:B *62:14 5.66971e-05
8 *205:C *205:A 5.66971e-05
9 *205:C *206:A1 6.88475e-05
10 *205:C *33:6 5.66971e-05
11 *205:C *70:12 9.84729e-05
12 *30:27 *206:A1 1.00887e-05
13 *30:27 *31:10 7.74135e-05
14 *203:A *203:B 1.24368e-05
*RES
1 *202:X *30:8 14.8357 
2 *30:8 *203:B 15.6036 
3 *30:8 *30:27 3.21429 
4 *30:27 *206:A2 13.8 
5 *30:27 *205:C 16.1929 
*END

*D_NET *31 0.00106152
*CONN
*I *206:A1 I *D sky130_fd_sc_hd__o21ai_1
*I *205:B I *D sky130_fd_sc_hd__or3_1
*I *204:X O *D sky130_fd_sc_hd__and3_1
*CAP
1 *206:A1 4.22339e-05
2 *205:B 0.000122291
3 *204:X 0.000154752
4 *31:10 0.000319277
5 *205:B *205:A 4.34677e-05
6 *205:B *70:12 0.000139337
7 *206:A1 *70:12 3.29297e-05
8 *203:A *31:10 5.08826e-05
9 *205:C *206:A1 6.88475e-05
10 *30:27 *206:A1 1.00887e-05
11 *30:27 *31:10 7.74135e-05
*RES
1 *204:X *31:10 16.1929 
2 *31:10 *205:B 16.425 
3 *31:10 *206:A1 14.8357 
*END

*D_NET *32 0.00100786
*CONN
*I *209:A2 I *D sky130_fd_sc_hd__a21bo_1
*I *207:A I *D sky130_fd_sc_hd__and2_1
*I *205:X O *D sky130_fd_sc_hd__or3_1
*CAP
1 *209:A2 0.000220201
2 *207:A 0
3 *205:X 9.62444e-05
4 *32:8 0.000316446
5 *209:A2 *207:B 1.02132e-05
6 *209:A2 *208:B 4.49862e-05
7 *209:A2 *209:A1 5.49544e-05
8 *209:A2 *209:B1_N 0.000116447
9 *209:A2 *33:6 4.82947e-05
10 *32:8 *33:6 0.000100074
*RES
1 *205:X *32:8 11.4964 
2 *32:8 *207:A 9.3 
3 *32:8 *209:A2 14.0857 
*END

*D_NET *33 0.00102437
*CONN
*I *209:B1_N I *D sky130_fd_sc_hd__a21bo_1
*I *207:B I *D sky130_fd_sc_hd__and2_1
*I *206:Y O *D sky130_fd_sc_hd__o21ai_1
*CAP
1 *209:B1_N 6.19617e-05
2 *207:B 2.00462e-05
3 *206:Y 0.000252387
4 *33:6 0.000334395
5 *33:6 *205:A 2.38501e-05
6 *205:C *33:6 5.66971e-05
7 *209:A2 *207:B 1.02132e-05
8 *209:A2 *209:B1_N 0.000116447
9 *209:A2 *33:6 4.82947e-05
10 *32:8 *33:6 0.000100074
*RES
1 *206:Y *33:6 13.9429 
2 *33:6 *207:B 9.72857 
3 *33:6 *209:B1_N 10.6571 
*END

*D_NET *34 0.000598126
*CONN
*I *208:B I *D sky130_fd_sc_hd__xor2_1
*I *207:X O *D sky130_fd_sc_hd__and2_1
*CAP
1 *208:B 0.000150161
2 *207:X 0.000150161
3 *208:B *209:A1 0.000126409
4 *208:B *58:12 0.000126409
5 *209:A2 *208:B 4.49862e-05
*RES
1 *207:X *208:B 30.6 
*END

*D_NET *35 0.00126398
*CONN
*I *212:B I *D sky130_fd_sc_hd__and2_1
*I *210:B I *D sky130_fd_sc_hd__xor2_1
*I *209:X O *D sky130_fd_sc_hd__a21bo_1
*CAP
1 *212:B 0.00023246
2 *210:B 0
3 *209:X 0.000154017
4 *35:6 0.000386476
5 *212:B *210:A 0.000135028
6 *212:B *211:A 1.98839e-05
7 *212:B *211:B 1.24368e-05
8 *212:B *212:A 0.000172085
9 *212:B *213:A2 8.15267e-05
10 *212:B *38:14 1.34741e-05
11 *212:B *55:18 5.65955e-05
*RES
1 *209:X *35:6 11.8893 
2 *35:6 *210:B 9.3 
3 *35:6 *212:B 23.5679 
*END

*D_NET *36 0.00114804
*CONN
*I *211:B I *D sky130_fd_sc_hd__xor2_1
*I *213:A2 I *D sky130_fd_sc_hd__a21oi_2
*I *210:X O *D sky130_fd_sc_hd__xor2_1
*CAP
1 *211:B 0.000103321
2 *213:A2 0.000290422
3 *210:X 0
4 *36:4 0.000393743
5 *211:B *211:A 4.64978e-05
6 *213:A2 *213:A1 0.000141579
7 *213:A2 *56:14 7.85137e-05
8 *212:B *211:B 1.24368e-05
9 *212:B *213:A2 8.15267e-05
*RES
1 *210:X *36:4 9.3 
2 *36:4 *213:A2 23.3536 
3 *36:4 *211:B 11.5143 
*END

*D_NET *37 0.000997126
*CONN
*I *213:B1 I *D sky130_fd_sc_hd__a21oi_2
*I *212:X O *D sky130_fd_sc_hd__and2_1
*CAP
1 *213:B1 0.000284881
2 *212:X 0.000284881
3 *213:B1 *53:14 5.20669e-05
4 *213:B1 *55:18 1.48543e-05
5 *213:B1 *71:10 5.06672e-05
6 *213:B1 *74:16 0.000309776
*RES
1 *212:X *213:B1 33.1536 
*END

*D_NET *38 0.00565425
*CONN
*I *216:A_N I *D sky130_fd_sc_hd__and2b_1
*I *214:B I *D sky130_fd_sc_hd__xnor2_1
*I *213:Y O *D sky130_fd_sc_hd__a21oi_2
*CAP
1 *216:A_N 0
2 *214:B 3.20492e-05
3 *213:Y 0.001071
4 *38:14 0.00110305
5 *214:B *214:A 0.00010096
6 *38:14 *212:A 0.000195257
7 *38:14 *213:A1 0.000101777
8 *38:14 *214:A 0.000175251
9 *38:14 *226:A 3.93346e-05
10 *38:14 *229:B1 0.000240334
11 *38:14 *56:14 0.00115435
12 *38:14 *71:10 0.000114861
13 *38:14 *72:14 0.00131255
14 *212:B *38:14 1.34741e-05
*RES
1 *213:Y *38:14 49.0321 
2 *38:14 *214:B 10.2464 
3 *38:14 *216:A_N 9.3 
*END

*D_NET *39 0.000557116
*CONN
*I *217:A2 I *D sky130_fd_sc_hd__a21oi_2
*I *215:B I *D sky130_fd_sc_hd__xor2_1
*I *214:Y O *D sky130_fd_sc_hd__xnor2_1
*CAP
1 *217:A2 7.63201e-05
2 *215:B 2.23854e-05
3 *214:Y 7.90547e-05
4 *39:12 0.00017776
5 *217:A2 *217:A1 0.000105163
6 *217:A2 *252:A 5.71472e-05
7 *39:12 *64:10 3.92854e-05
*RES
1 *214:Y *39:12 19.7643 
2 *39:12 *215:B 9.72857 
3 *39:12 *217:A2 11.4964 
*END

*D_NET *40 0.00031114
*CONN
*I *217:B1 I *D sky130_fd_sc_hd__a21oi_2
*I *216:X O *D sky130_fd_sc_hd__and2b_1
*CAP
1 *217:B1 0.000115293
2 *216:X 0.000115293
3 *217:B1 *252:A 2.34059e-05
4 *217:B1 *41:8 5.71472e-05
5 *217:B1 *42:10 0
*RES
1 *216:X *217:B1 29.9036 
*END

*D_NET *41 0.00128657
*CONN
*I *223:A I *D sky130_fd_sc_hd__or2b_1
*I *218:B I *D sky130_fd_sc_hd__xnor2_1
*I *217:Y O *D sky130_fd_sc_hd__a21oi_2
*CAP
1 *223:A 0.000197128
2 *218:B 0
3 *217:Y 0.000151303
4 *41:8 0.000348431
5 *223:A *218:A 5.26625e-05
6 *223:A *252:A 7.92229e-06
7 *223:A *73:20 2.07878e-05
8 *41:8 *252:A 0.000451187
9 *217:B1 *41:8 5.71472e-05
*RES
1 *217:Y *41:8 13.9607 
2 *41:8 *218:B 9.3 
3 *41:8 *223:A 12.2107 
*END

*D_NET *42 0.00136374
*CONN
*I *219:B I *D sky130_fd_sc_hd__or2_1
*I *220:A I *D sky130_fd_sc_hd__nand2_1
*I *218:Y O *D sky130_fd_sc_hd__xnor2_1
*CAP
1 *219:B 0.000183353
2 *220:A 8.54624e-05
3 *218:Y 0.000232293
4 *42:10 0.000501108
5 *219:B *219:A 5.65955e-05
6 *219:B *221:A 5.65955e-05
7 *219:B *221:B 0
8 *219:B *228:A2 0
9 *219:B *44:6 2.89114e-05
10 *219:B *44:15 0.000104686
11 *220:A *220:B 6.17796e-06
12 *220:A *221:B 4.28157e-06
13 *220:A *44:6 0.000104274
14 *217:B1 *42:10 0
*RES
1 *218:Y *42:10 22.0679 
2 *42:10 *220:A 11.3536 
3 *42:10 *219:B 13.1393 
*END

*D_NET *43 0.000128014
*CONN
*I *221:A I *D sky130_fd_sc_hd__and2_1
*I *219:X O *D sky130_fd_sc_hd__or2_1
*CAP
1 *221:A 7.41148e-06
2 *219:X 7.41148e-06
3 *221:A *44:15 5.65955e-05
4 *219:B *221:A 5.65955e-05
*RES
1 *219:X *221:A 19.1357 
*END

*D_NET *44 0.00331388
*CONN
*I *225:A2 I *D sky130_fd_sc_hd__a21bo_1
*I *224:C I *D sky130_fd_sc_hd__nand3b_1
*I *228:A2 I *D sky130_fd_sc_hd__a21boi_1
*I *221:B I *D sky130_fd_sc_hd__and2_1
*I *220:Y O *D sky130_fd_sc_hd__nand2_1
*CAP
1 *225:A2 2.79619e-05
2 *224:C 0.000450308
3 *228:A2 1.67282e-05
4 *221:B 2.04845e-05
5 *220:Y 4.62739e-05
6 *44:24 0.000551071
7 *44:15 0.000299883
8 *44:6 0.000277112
9 *221:B *220:B 0
10 *224:C *224:A_N 2.09072e-05
11 *224:C *224:B 1.98586e-05
12 *224:C *228:B1_N 0.000234537
13 *224:C *74:18 2.2816e-05
14 *225:A2 *228:B1_N 0.000139971
15 *225:A2 *46:23 0.000185118
16 *44:6 *220:B 0.000232399
17 *44:15 *219:A 5.49489e-05
18 *44:15 *220:B 0.000272174
19 *44:24 *46:23 0.00014258
20 *219:B *221:B 0
21 *219:B *228:A2 0
22 *219:B *44:6 2.89114e-05
23 *219:B *44:15 0.000104686
24 *220:A *221:B 4.28157e-06
25 *220:A *44:6 0.000104274
26 *221:A *44:15 5.65955e-05
*RES
1 *220:Y *44:6 11.4786 
2 *44:6 *221:B 9.72857 
3 *44:6 *44:15 5.46429 
4 *44:15 *228:A2 9.72857 
5 *44:15 *44:24 1.76786 
6 *44:24 *224:C 16.3714 
7 *44:24 *225:A2 11.0679 
*END

*D_NET *45 0.00119352
*CONN
*I *222:A I *D sky130_fd_sc_hd__clkbuf_1
*I *221:X O *D sky130_fd_sc_hd__and2_1
*CAP
1 *222:A 0.000556998
2 *221:X 0.000556998
3 *222:A *202:A 2.85234e-05
4 *202:C *222:A 5.10039e-05
*RES
1 *221:X *222:A 37.5464 
*END

*D_NET *46 0.00246758
*CONN
*I *224:B I *D sky130_fd_sc_hd__nand3b_1
*I *225:A1 I *D sky130_fd_sc_hd__a21bo_1
*I *228:A1 I *D sky130_fd_sc_hd__a21boi_1
*I *223:X O *D sky130_fd_sc_hd__or2b_1
*CAP
1 *224:B 0.000224926
2 *225:A1 2.23707e-05
3 *228:A1 0
4 *223:X 0.000342311
5 *46:23 0.000421802
6 *46:10 0.000516816
7 *224:B *224:A_N 2.59355e-05
8 *224:B *228:B1_N 8.95717e-05
9 *224:B *229:B1 5.33005e-05
10 *224:B *47:14 3.69047e-06
11 *224:B *74:18 2.84026e-05
12 *46:10 *230:B 0.000101859
13 *46:23 *228:B1_N 1.93884e-05
14 *46:23 *229:B1 0.000269648
15 *46:23 *58:12 0
16 *224:C *224:B 1.98586e-05
17 *225:A2 *46:23 0.000185118
18 *44:24 *46:23 0.00014258
*RES
1 *223:X *46:10 19.0321 
2 *46:10 *228:A1 13.8 
3 *46:10 *46:23 9.25 
4 *46:23 *225:A1 9.72857 
5 *46:23 *224:B 13.6929 
*END

*D_NET *47 0.00138142
*CONN
*I *229:A2 I *D sky130_fd_sc_hd__a21oi_1
*I *226:A I *D sky130_fd_sc_hd__nand2_1
*I *224:Y O *D sky130_fd_sc_hd__nand3b_1
*CAP
1 *229:A2 3.37777e-05
2 *226:A 0.000108305
3 *224:Y 0.000139519
4 *47:14 0.000281601
5 *226:A *226:B 1.8461e-05
6 *226:A *227:B 0.000351388
7 *226:A *229:B1 0.000141734
8 *226:A *72:14 5.12936e-05
9 *229:A2 *72:14 2.89016e-05
10 *47:14 *227:B 7.6644e-05
11 *47:14 *255:A 0.00010677
12 *224:B *47:14 3.69047e-06
13 *38:14 *226:A 3.93346e-05
*RES
1 *224:Y *47:14 20.7107 
2 *47:14 *226:A 13.55 
3 *47:14 *229:A2 10.2643 
*END

*D_NET *48 0.000240808
*CONN
*I *226:B I *D sky130_fd_sc_hd__nand2_1
*I *225:X O *D sky130_fd_sc_hd__a21bo_1
*CAP
1 *226:B 9.19561e-05
2 *225:X 9.19561e-05
3 *226:B *56:14 3.84349e-05
4 *226:A *226:B 1.8461e-05
*RES
1 *225:X *226:B 29.3679 
*END

*D_NET *49 0.00166109
*CONN
*I *227:B I *D sky130_fd_sc_hd__xnor2_1
*I *226:Y O *D sky130_fd_sc_hd__nand2_1
*CAP
1 *227:B 0.000448373
2 *226:Y 0.000448373
3 *227:B *227:A 0.000309052
4 *227:B *255:A 2.72545e-05
5 *227:B *72:14 0
6 *226:A *227:B 0.000351388
7 *47:14 *227:B 7.6644e-05
*RES
1 *226:Y *227:B 35.0821 
*END

*D_NET *50 0.00156947
*CONN
*I *229:B1 I *D sky130_fd_sc_hd__a21oi_1
*I *228:Y O *D sky130_fd_sc_hd__a21boi_1
*CAP
1 *229:B1 0.000393131
2 *228:Y 0.000393131
3 *229:B1 *72:14 7.8195e-05
4 *224:B *229:B1 5.33005e-05
5 *226:A *229:B1 0.000141734
6 *38:14 *229:B1 0.000240334
7 *46:23 *229:B1 0.000269648
*RES
1 *228:Y *229:B1 35.1179 
*END

*D_NET *51 0.000258535
*CONN
*I *231:A I *D sky130_fd_sc_hd__xnor2_1
*I *229:Y O *D sky130_fd_sc_hd__a21oi_1
*CAP
1 *231:A 0.00011005
2 *229:Y 0.00011005
3 *231:A *56:14 0
4 *231:A *59:14 3.84349e-05
*RES
1 *229:Y *231:A 29.6714 
*END

*D_NET *52 0.000133221
*CONN
*I *231:B I *D sky130_fd_sc_hd__xnor2_1
*I *230:X O *D sky130_fd_sc_hd__xor2_1
*CAP
1 *231:B 3.93451e-05
2 *230:X 3.93451e-05
3 *231:B *73:20 5.45307e-05
*RES
1 *230:X *231:B 19.5464 
*END

*D_NET *53 0.00607911
*CONN
*I *198:B I *D sky130_fd_sc_hd__xor2_1
*I *204:B I *D sky130_fd_sc_hd__and3_1
*I *199:A2 I *D sky130_fd_sc_hd__a21o_1
*I *200:B I *D sky130_fd_sc_hd__nand3_1
*I *232:X O *D sky130_fd_sc_hd__dlymetal6s2s_1
*CAP
1 *198:B 0
2 *204:B 0.000119734
3 *199:A2 0
4 *200:B 8.63259e-05
5 *232:X 0.00139749
6 *53:26 0.000212162
7 *53:18 0.000287276
8 *53:16 0.000162226
9 *53:14 0.00151801
10 *200:B *201:B1 0.00023901
11 *200:B *204:C 4.40506e-05
12 *200:B *64:10 1.00887e-05
13 *200:B *64:25 5.1695e-05
14 *204:B *204:A 1.07719e-05
15 *204:B *204:C 2.13481e-06
16 *53:14 *213:A1 2.85321e-05
17 *53:14 *250:A 0.000331493
18 *53:14 *71:10 4.49489e-05
19 *53:16 *198:A 2.45012e-05
20 *53:16 *68:14 0.000128682
21 *53:18 *198:A 0.00011785
22 *53:18 *68:14 6.45442e-05
23 *53:26 *198:A 0.000106433
24 *53:26 *199:A1 4.16294e-05
25 *53:26 *199:B1 1.32293e-05
26 *53:26 *204:C 9.22002e-05
27 *53:26 *68:14 0.000204075
28 SUM[3] *53:14 0.000317064
29 *201:A1 *53:26 9.58632e-05
30 *201:A2 *200:B 9.96487e-05
31 *203:A *204:B 1.84865e-05
32 *203:A *53:26 9.85599e-06
33 *213:B1 *53:14 5.20669e-05
34 *242:A *53:14 0.000147041
*RES
1 *232:X *53:14 47.8714 
2 *53:14 *53:16 3.16071 
3 *53:16 *53:18 1.64286 
4 *53:18 *53:26 8.73214 
5 *53:26 *200:B 21.4607 
6 *53:26 *199:A2 9.3 
7 *53:18 *204:B 15.1571 
8 *53:16 *198:B 13.8 
*END

*D_NET *54 0.00358477
*CONN
*I *201:B1 I *D sky130_fd_sc_hd__a21oi_1
*I *202:A I *D sky130_fd_sc_hd__and3_1
*I *233:X O *D sky130_fd_sc_hd__clkbuf_1
*CAP
1 *201:B1 9.58658e-05
2 *202:A 0.000419817
3 *233:X 0.000650975
4 *54:10 0.00116666
5 *201:B1 *64:10 1.12669e-05
6 *201:B1 *76:18 0.000217368
7 *201:B1 *76:37 1.00887e-05
8 *202:A *200:A 6.05161e-06
9 *202:A *200:C 5.50052e-05
10 *202:A *253:A 6.47172e-06
11 *202:A *68:14 8.82917e-05
12 *54:10 *57:12 0
13 *54:10 *64:10 0.000349249
14 *200:B *201:B1 0.00023901
15 *202:C *202:A 0.000202716
16 *203:A *202:A 5.54817e-06
17 *222:A *202:A 2.85234e-05
18 *235:A *54:10 3.18676e-05
*RES
1 *233:X *54:10 27.5143 
2 *54:10 *202:A 29.5679 
3 *54:10 *201:B1 17.2643 
*END

*D_NET *55 0.00537099
*CONN
*I *208:A I *D sky130_fd_sc_hd__xor2_1
*I *209:A1 I *D sky130_fd_sc_hd__a21bo_1
*I *234:X O *D sky130_fd_sc_hd__buf_1
*CAP
1 *208:A 0
2 *209:A1 0.000132171
3 *234:X 0.00139579
4 *55:18 0.00152796
5 *209:A1 *58:12 3.94849e-05
6 *55:18 *255:A 0
7 *55:18 *62:14 0.00121801
8 *55:18 *72:14 0.000749743
9 *55:18 *73:20 0
10 SUM[7] *55:18 0
11 *208:B *209:A1 0.000126409
12 *209:A2 *209:A1 5.49544e-05
13 *212:B *55:18 5.65955e-05
14 *213:B1 *55:18 1.48543e-05
15 *244:A *55:18 5.50313e-05
*RES
1 *234:X *55:18 49.9607 
2 *55:18 *209:A1 21.3893 
3 *55:18 *208:A 9.3 
*END

*D_NET *56 0.00732065
*CONN
*I *213:A1 I *D sky130_fd_sc_hd__a21oi_2
*I *211:A I *D sky130_fd_sc_hd__xor2_1
*I *235:X O *D sky130_fd_sc_hd__buf_1
*CAP
1 *213:A1 8.37006e-05
2 *211:A 0.000204296
3 *235:X 0.00101523
4 *56:14 0.00124506
5 *56:12 0.0019723
6 *211:A *210:A 9.41642e-05
7 *56:12 *230:B 0.000577422
8 *56:12 *252:A 0.000145647
9 *56:14 *230:A 0.000318309
10 *56:14 *59:14 0
11 SUM[4] *56:12 5.49544e-05
12 *211:B *211:A 4.64978e-05
13 *212:B *211:A 1.98839e-05
14 *213:A2 *213:A1 0.000141579
15 *213:A2 *56:14 7.85137e-05
16 *226:B *56:14 3.84349e-05
17 *231:A *56:14 0
18 *38:14 *213:A1 0.000101777
19 *38:14 *56:14 0.00115435
20 *53:14 *213:A1 2.85321e-05
*RES
1 *235:X *56:12 31.3179 
2 *56:12 *56:14 21.6786 
3 *56:14 *211:A 17.2286 
4 *56:14 *213:A1 16.2821 
*END

*D_NET *57 0.00125425
*CONN
*I *217:A1 I *D sky130_fd_sc_hd__a21oi_2
*I *215:A I *D sky130_fd_sc_hd__xor2_1
*I *236:X O *D sky130_fd_sc_hd__buf_1
*CAP
1 *217:A1 0.000125493
2 *215:A 0
3 *236:X 0.000381033
4 *57:12 0.000506526
5 *217:A1 *252:A 3.48705e-05
6 *57:12 *64:10 0.000101169
7 *217:A2 *217:A1 0.000105163
8 *54:10 *57:12 0
*RES
1 *236:X *57:12 25.3714 
2 *57:12 *215:A 9.3 
3 *57:12 *217:A1 12.3 
*END

*D_NET *58 0.00360697
*CONN
*I *220:B I *D sky130_fd_sc_hd__nand2_1
*I *219:A I *D sky130_fd_sc_hd__or2_1
*I *237:X O *D sky130_fd_sc_hd__buf_1
*CAP
1 *220:B 0.000288504
2 *219:A 5.02815e-05
3 *237:X 0.00107061
4 *58:12 0.00140939
5 *208:B *58:12 0.000126409
6 *209:A1 *58:12 3.94849e-05
7 *219:B *219:A 5.65955e-05
8 *220:A *220:B 6.17796e-06
9 *221:B *220:B 0
10 *44:6 *220:B 0.000232399
11 *44:15 *219:A 5.49489e-05
12 *44:15 *220:B 0.000272174
13 *46:23 *58:12 0
*RES
1 *237:X *58:12 32.8804 
2 *58:12 *219:A 14.9161 
3 *58:12 *220:B 19.8625 
*END

*D_NET *59 0.00270556
*CONN
*I *227:A I *D sky130_fd_sc_hd__xnor2_1
*I *229:A1 I *D sky130_fd_sc_hd__a21oi_1
*I *238:X O *D sky130_fd_sc_hd__buf_1
*CAP
1 *227:A 0.000251828
2 *229:A1 0
3 *238:X 0.000535637
4 *59:14 0.000787465
5 *227:A *255:A 1.34492e-05
6 *227:A *74:16 0.000220687
7 *59:14 *230:A 6.05161e-06
8 *59:14 *255:A 6.76235e-05
9 *59:14 *73:20 0.000362645
10 *227:B *227:A 0.000309052
11 *231:A *59:14 3.84349e-05
12 *238:A *59:14 5.15716e-05
13 *244:A *59:14 6.11199e-05
14 *56:14 *59:14 0
*RES
1 *238:X *59:14 24.7643 
2 *59:14 *229:A1 13.8 
3 *59:14 *227:A 19.7286 
*END

*D_NET *60 0.00270582
*CONN
*I *230:B I *D sky130_fd_sc_hd__xor2_1
*I *239:X O *D sky130_fd_sc_hd__clkbuf_1
*CAP
1 *230:B 0.000712612
2 *239:X 0.000712612
3 *230:B *252:A 0.000272665
4 *230:B *73:20 0.000328646
5 *46:10 *230:B 0.000101859
6 *56:12 *230:B 0.000577422
*RES
1 *239:X *230:B 41.6714 
*END

*D_NET *61 0.000575447
*CONN
*I *248:A I *D sky130_fd_sc_hd__clkbuf_4
*I *198:X O *D sky130_fd_sc_hd__xor2_1
*CAP
1 *248:A 0.000261923
2 *198:X 0.000261923
3 SUM[2] *248:A 5.1601e-05
*RES
1 *198:X *248:A 32.8857 
*END

*D_NET *62 0.00486897
*CONN
*I *249:A I *D sky130_fd_sc_hd__buf_2
*I *203:Y O *D sky130_fd_sc_hd__nor2_1
*CAP
1 *249:A 0
2 *203:Y 0.00178801
3 *62:14 0.00178801
4 *62:14 *250:A 1.82351e-05
5 *203:B *62:14 5.66971e-05
6 *55:18 *62:14 0.00121801
*RES
1 *203:Y *62:14 43.4429 
2 *62:14 *249:A 9.3 
*END

*D_NET *63 0.00241052
*CONN
*I *250:A I *D sky130_fd_sc_hd__clkbuf_4
*I *208:X O *D sky130_fd_sc_hd__xor2_1
*CAP
1 *250:A 0.0010304
2 *208:X 0.0010304
3 *53:14 *250:A 0.000331493
4 *62:14 *250:A 1.82351e-05
*RES
1 *208:X *250:A 44.6 
*END

*D_NET *64 0.00352976
*CONN
*I *199:B1 I *D sky130_fd_sc_hd__a21o_1
*I *204:C I *D sky130_fd_sc_hd__and3_1
*I *200:C I *D sky130_fd_sc_hd__nand3_1
*I *240:X O *D sky130_fd_sc_hd__buf_1
*CAP
1 *199:B1 3.40645e-05
2 *204:C 0.000344928
3 *200:C 1.58368e-05
4 *240:X 0.000521663
5 *64:25 0.000485923
6 *64:10 0.00064443
7 *199:B1 *199:A1 3.48314e-05
8 *199:B1 *68:14 2.18087e-05
9 *204:C *204:A 8.17274e-05
10 *204:C *68:14 1.9516e-05
11 *204:C *76:37 9.36126e-05
12 *64:10 *68:14 4.79773e-05
13 *64:25 *68:14 0.000199191
14 *200:B *204:C 4.40506e-05
15 *200:B *64:10 1.00887e-05
16 *200:B *64:25 5.1695e-05
17 *201:A1 *199:B1 2.12647e-05
18 *201:A2 *64:25 9.8126e-05
19 *201:B1 *64:10 1.12669e-05
20 *202:A *200:C 5.50052e-05
21 *202:C *200:C 1.84865e-05
22 *203:A *199:B1 4.43158e-05
23 *203:A *204:C 3.26799e-05
24 *204:B *204:C 2.13481e-06
25 *39:12 *64:10 3.92854e-05
26 *53:26 *199:B1 1.32293e-05
27 *53:26 *204:C 9.22002e-05
28 *54:10 *64:10 0.000349249
29 *57:12 *64:10 0.000101169
*RES
1 *240:X *64:10 25.0143 
2 *64:10 *200:C 14.3357 
3 *64:10 *64:25 3.36607 
4 *64:25 *204:C 19.3446 
5 *64:25 *199:B1 15.0411 
*END

*D_NET *65 0.00040334
*CONN
*I *251:A I *D sky130_fd_sc_hd__clkbuf_4
*I *211:X O *D sky130_fd_sc_hd__xor2_1
*CAP
1 *251:A 0.000176608
2 *211:X 0.000176608
3 *251:A *74:16 5.01234e-05
*RES
1 *211:X *251:A 30.5107 
*END

*D_NET *66 0.00312319
*CONN
*I *252:A I *D sky130_fd_sc_hd__clkbuf_4
*I *215:X O *D sky130_fd_sc_hd__xor2_1
*CAP
1 *252:A 0.000949957
2 *215:X 0.000949957
3 *252:A *218:A 0.000143375
4 *252:A *73:20 8.70565e-05
5 SUM[4] *252:A 0
6 *217:A1 *252:A 3.48705e-05
7 *217:A2 *252:A 5.71472e-05
8 *217:B1 *252:A 2.34059e-05
9 *223:A *252:A 7.92229e-06
10 *230:B *252:A 0.000272665
11 *41:8 *252:A 0.000451187
12 *56:12 *252:A 0.000145647
*RES
1 *215:X *252:A 46.4393 
*END

*D_NET *67 0.00126306
*CONN
*I *253:A I *D sky130_fd_sc_hd__clkbuf_4
*I *222:X O *D sky130_fd_sc_hd__clkbuf_1
*CAP
1 *253:A 0.000419692
2 *222:X 0.000419692
3 *253:A *200:A 1.58163e-05
4 *253:A *76:14 1.84776e-05
5 *253:A *76:18 0.000148658
6 *253:A *76:37 0.000140092
7 *202:A *253:A 6.47172e-06
8 *202:C *253:A 9.41642e-05
*RES
1 *222:X *253:A 33.9571 
*END

*D_NET *68 0.00543967
*CONN
*I *254:A I *D sky130_fd_sc_hd__buf_4
*I *227:Y O *D sky130_fd_sc_hd__xnor2_1
*CAP
1 *254:A 0
2 *227:Y 0.00225996
3 *68:14 0.00225996
4 *199:B1 *68:14 2.18087e-05
5 *202:A *68:14 8.82917e-05
6 *203:A *68:14 0.000145662
7 *204:C *68:14 1.9516e-05
8 *53:16 *68:14 0.000128682
9 *53:18 *68:14 6.45442e-05
10 *53:26 *68:14 0.000204075
11 *64:10 *68:14 4.79773e-05
12 *64:25 *68:14 0.000199191
*RES
1 *227:Y *68:14 46.7464 
2 *68:14 *254:A 13.8 
*END

*D_NET *69 0.00113874
*CONN
*I *255:A I *D sky130_fd_sc_hd__buf_2
*I *231:Y O *D sky130_fd_sc_hd__xnor2_1
*CAP
1 *255:A 0.000459804
2 *231:Y 0.000459804
3 *255:A *73:20 4.0342e-06
4 *227:A *255:A 1.34492e-05
5 *227:B *255:A 2.72545e-05
6 *47:14 *255:A 0.00010677
7 *55:18 *255:A 0
8 *59:14 *255:A 6.76235e-05
*RES
1 *231:Y *255:A 35.4571 
*END

*D_NET *70 0.00106149
*CONN
*I *205:A I *D sky130_fd_sc_hd__or3_1
*I *206:B1 I *D sky130_fd_sc_hd__o21ai_1
*I *241:X O *D sky130_fd_sc_hd__clkbuf_1
*CAP
1 *205:A 2.21144e-05
2 *206:B1 0
3 *241:X 0.000311254
4 *70:12 0.000333369
5 *205:B *205:A 4.34677e-05
6 *205:B *70:12 0.000139337
7 *205:C *205:A 5.66971e-05
8 *205:C *70:12 9.84729e-05
9 *206:A1 *70:12 3.29297e-05
10 *33:6 *205:A 2.38501e-05
*RES
1 *241:X *70:12 24.4429 
2 *70:12 *206:B1 9.3 