*SPEF "ieee 1481-1999"
*DESIGN "kogge"
*DATE "11:11:11 Fri 11 11, 1111"
*VENDOR "OpenRCX"
*PROGRAM "Parallel Extraction"
*VERSION "1.0"
*DESIGN_FLOW "NAME_SCOPE LOCAL" "PIN_CAP NONE"
*DIVIDER /
*DELIMITER :
*BUS_DELIMITER []
*T_UNIT 1 NS
*C_UNIT 1 PF
*R_UNIT 1 OHM
*L_UNIT 1 HENRY

*NAME_MAP
*1 A[0]
*2 A[10]
*3 A[11]
*4 A[12]
*5 A[13]
*6 A[14]
*7 A[15]
*8 A[1]
*9 A[2]
*10 A[3]
*11 A[4]
*12 A[5]
*13 A[6]
*14 A[7]
*15 A[8]
*16 A[9]
*17 B[0]
*18 B[10]
*19 B[11]
*20 B[12]
*21 B[13]
*22 B[14]
*23 B[15]
*24 B[1]
*25 B[2]
*26 B[3]
*27 B[4]
*28 B[5]
*29 B[6]
*30 B[7]
*31 B[8]
*32 B[9]
*33 SUM[0]
*34 SUM[10]
*35 SUM[11]
*36 SUM[12]
*37 SUM[13]
*38 SUM[14]
*39 SUM[15]
*40 SUM[1]
*41 SUM[2]
*42 SUM[3]
*43 SUM[4]
*44 SUM[5]
*45 SUM[6]
*46 SUM[7]
*47 SUM[8]
*48 SUM[9]
*51 _000_
*52 _001_
*53 _002_
*54 _003_
*55 _004_
*56 _005_
*57 _006_
*58 _007_
*59 _008_
*60 _009_
*61 _010_
*62 _011_
*63 _012_
*64 _013_
*65 _014_
*66 _015_
*67 _016_
*68 _017_
*69 _018_
*70 _019_
*71 _020_
*72 _021_
*73 _022_
*74 _023_
*75 _024_
*76 _025_
*77 _026_
*78 _027_
*79 _028_
*80 _029_
*81 _030_
*82 _031_
*83 _032_
*84 _033_
*85 _034_
*86 _035_
*87 _036_
*88 _037_
*89 _038_
*90 _039_
*91 _040_
*92 _041_
*93 _042_
*94 _043_
*95 _044_
*96 _045_
*97 _046_
*98 _047_
*99 _048_
*100 _049_
*101 _050_
*102 _051_
*103 _052_
*104 _053_
*105 _054_
*106 _055_
*107 _056_
*108 _057_
*109 _058_
*110 _059_
*111 _060_
*112 _061_
*113 _062_
*114 _063_
*115 _064_
*116 _065_
*117 _066_
*118 _067_
*119 _068_
*120 _069_
*121 _070_
*122 _071_
*123 _072_
*124 _073_
*125 _074_
*126 _075_
*127 _076_
*128 _077_
*129 _078_
*130 _079_
*131 _080_
*132 _081_
*133 _082_
*134 _083_
*135 _084_
*136 _085_
*137 _086_
*138 _087_
*139 _088_
*140 _089_
*141 _090_
*142 _091_
*143 _092_
*144 _093_
*145 net1
*146 net10
*147 net11
*148 net12
*149 net13
*150 net14
*151 net15
*152 net16
*153 net17
*154 net18
*155 net19
*156 net2
*157 net20
*158 net21
*159 net22
*160 net23
*161 net24
*162 net25
*163 net26
*164 net27
*165 net28
*166 net29
*167 net3
*168 net30
*169 net31
*170 net32
*171 net33
*172 net34
*173 net35
*174 net36
*175 net37
*176 net38
*177 net39
*178 net4
*179 net40
*180 net41
*181 net42
*182 net43
*183 net44
*184 net45
*185 net46
*186 net47
*187 net48
*188 net5
*189 net6
*190 net7
*191 net8
*192 net9
*193 FILLER_0_0_107
*194 FILLER_0_0_111
*195 FILLER_0_0_113
*196 FILLER_0_0_119
*197 FILLER_0_0_25
*198 FILLER_0_0_35
*199 FILLER_0_0_43
*200 FILLER_0_0_49
*201 FILLER_0_0_55
*202 FILLER_0_0_63
*203 FILLER_0_0_7
*204 FILLER_0_0_71
*205 FILLER_0_0_79
*206 FILLER_0_0_83
*207 FILLER_0_0_85
*208 FILLER_0_0_91
*209 FILLER_0_0_99
*210 FILLER_0_10_102
*211 FILLER_0_10_120
*212 FILLER_0_10_126
*213 FILLER_0_10_18
*214 FILLER_0_10_26
*215 FILLER_0_10_29
*216 FILLER_0_10_41
*217 FILLER_0_10_54
*218 FILLER_0_10_6
*219 FILLER_0_10_64
*220 FILLER_0_10_72
*221 FILLER_0_10_82
*222 FILLER_0_10_90
*223 FILLER_0_11_113
*224 FILLER_0_11_123
*225 FILLER_0_11_15
*226 FILLER_0_11_27
*227 FILLER_0_11_3
*228 FILLER_0_11_39
*229 FILLER_0_11_51
*230 FILLER_0_11_55
*231 FILLER_0_11_57
*232 FILLER_0_11_63
*233 FILLER_0_11_67
*234 FILLER_0_11_77
*235 FILLER_0_11_89
*236 FILLER_0_12_105
*237 FILLER_0_12_110
*238 FILLER_0_12_122
*239 FILLER_0_12_126
*240 FILLER_0_12_19
*241 FILLER_0_12_27
*242 FILLER_0_12_29
*243 FILLER_0_12_41
*244 FILLER_0_12_45
*245 FILLER_0_12_58
*246 FILLER_0_12_64
*247 FILLER_0_12_69
*248 FILLER_0_12_7
*249 FILLER_0_12_81
*250 FILLER_0_12_85
*251 FILLER_0_12_97
*252 FILLER_0_13_101
*253 FILLER_0_13_109
*254 FILLER_0_13_11
*255 FILLER_0_13_113
*256 FILLER_0_13_125
*257 FILLER_0_13_20
*258 FILLER_0_13_28
*259 FILLER_0_13_3
*260 FILLER_0_13_36
*261 FILLER_0_13_42
*262 FILLER_0_13_65
*263 FILLER_0_13_77
*264 FILLER_0_13_89
*265 FILLER_0_14_109
*266 FILLER_0_14_118
*267 FILLER_0_14_130
*268 FILLER_0_14_20
*269 FILLER_0_14_29
*270 FILLER_0_14_3
*271 FILLER_0_14_41
*272 FILLER_0_14_53
*273 FILLER_0_14_65
*274 FILLER_0_14_77
*275 FILLER_0_14_83
*276 FILLER_0_14_97
*277 FILLER_0_15_107
*278 FILLER_0_15_111
*279 FILLER_0_15_117
*280 FILLER_0_15_125
*281 FILLER_0_15_18
*282 FILLER_0_15_30
*283 FILLER_0_15_42
*284 FILLER_0_15_54
*285 FILLER_0_15_57
*286 FILLER_0_15_69
*287 FILLER_0_15_7
*288 FILLER_0_15_78
*289 FILLER_0_15_95
*290 FILLER_0_16_100
*291 FILLER_0_16_112
*292 FILLER_0_16_126
*293 FILLER_0_16_130
*294 FILLER_0_16_18
*295 FILLER_0_16_26
*296 FILLER_0_16_29
*297 FILLER_0_16_3
*298 FILLER_0_16_42
*299 FILLER_0_16_54
*300 FILLER_0_16_66
*301 FILLER_0_17_105
*302 FILLER_0_17_111
*303 FILLER_0_17_113
*304 FILLER_0_17_122
*305 FILLER_0_17_126
*306 FILLER_0_17_20
*307 FILLER_0_17_32
*308 FILLER_0_17_36
*309 FILLER_0_17_40
*310 FILLER_0_17_51
*311 FILLER_0_17_55
*312 FILLER_0_17_57
*313 FILLER_0_17_69
*314 FILLER_0_17_7
*315 FILLER_0_17_81
*316 FILLER_0_17_93
*317 FILLER_0_18_102
*318 FILLER_0_18_114
*319 FILLER_0_18_126
*320 FILLER_0_18_130
*321 FILLER_0_18_3
*322 FILLER_0_18_37
*323 FILLER_0_18_46
*324 FILLER_0_18_55
*325 FILLER_0_18_63
*326 FILLER_0_18_79
*327 FILLER_0_18_83
*328 FILLER_0_18_90
*329 FILLER_0_19_105
*330 FILLER_0_19_111
*331 FILLER_0_19_126
*332 FILLER_0_19_15
*333 FILLER_0_19_27
*334 FILLER_0_19_3
*335 FILLER_0_19_52
*336 FILLER_0_19_57
*337 FILLER_0_19_69
*338 FILLER_0_19_81
*339 FILLER_0_19_93
*340 FILLER_0_1_101
*341 FILLER_0_1_109
*342 FILLER_0_1_113
*343 FILLER_0_1_119
*344 FILLER_0_1_123
*345 FILLER_0_1_19
*346 FILLER_0_1_25
*347 FILLER_0_1_39
*348 FILLER_0_1_51
*349 FILLER_0_1_55
*350 FILLER_0_1_57
*351 FILLER_0_1_61
*352 FILLER_0_1_69
*353 FILLER_0_1_7
*354 FILLER_0_1_81
*355 FILLER_0_1_89
*356 FILLER_0_1_93
*357 FILLER_0_20_104
*358 FILLER_0_20_116
*359 FILLER_0_20_12
*360 FILLER_0_20_122
*361 FILLER_0_20_24
*362 FILLER_0_20_29
*363 FILLER_0_20_41
*364 FILLER_0_20_54
*365 FILLER_0_20_66
*366 FILLER_0_20_74
*367 FILLER_0_20_92
*368 FILLER_0_21_105
*369 FILLER_0_21_111
*370 FILLER_0_21_113
*371 FILLER_0_21_129
*372 FILLER_0_21_14
*373 FILLER_0_21_23
*374 FILLER_0_21_27
*375 FILLER_0_21_29
*376 FILLER_0_21_37
*377 FILLER_0_21_55
*378 FILLER_0_21_57
*379 FILLER_0_21_62
*380 FILLER_0_21_70
*381 FILLER_0_21_79
*382 FILLER_0_21_83
*383 FILLER_0_21_85
*384 FILLER_0_21_91
*385 FILLER_0_21_99
*386 FILLER_0_2_108
*387 FILLER_0_2_11
*388 FILLER_0_2_124
*389 FILLER_0_2_23
*390 FILLER_0_2_27
*391 FILLER_0_2_29
*392 FILLER_0_2_39
*393 FILLER_0_2_46
*394 FILLER_0_2_54
*395 FILLER_0_2_66
*396 FILLER_0_2_78
*397 FILLER_0_2_85
*398 FILLER_0_3_109
*399 FILLER_0_3_113
*400 FILLER_0_3_125
*401 FILLER_0_3_15
*402 FILLER_0_3_27
*403 FILLER_0_3_3
*404 FILLER_0_3_39
*405 FILLER_0_3_75
*406 FILLER_0_3_87
*407 FILLER_0_3_97
*408 FILLER_0_4_109
*409 FILLER_0_4_122
*410 FILLER_0_4_130
*411 FILLER_0_4_18
*412 FILLER_0_4_27
*413 FILLER_0_4_29
*414 FILLER_0_4_3
*415 FILLER_0_4_33
*416 FILLER_0_4_41
*417 FILLER_0_4_53
*418 FILLER_0_4_65
*419 FILLER_0_4_77
*420 FILLER_0_4_83
*421 FILLER_0_4_85
*422 FILLER_0_4_97
*423 FILLER_0_5_111
*424 FILLER_0_5_120
*425 FILLER_0_5_126
*426 FILLER_0_5_18
*427 FILLER_0_5_39
*428 FILLER_0_5_51
*429 FILLER_0_5_55
*430 FILLER_0_5_57
*431 FILLER_0_5_6
*432 FILLER_0_5_74
*433 FILLER_0_5_80
*434 FILLER_0_5_99
*435 FILLER_0_6_105
*436 FILLER_0_6_124
*437 FILLER_0_6_130
*438 FILLER_0_6_22
*439 FILLER_0_6_3
*440 FILLER_0_6_36
*441 FILLER_0_6_47
*442 FILLER_0_6_59
*443 FILLER_0_6_67
*444 FILLER_0_6_74
*445 FILLER_0_6_82
*446 FILLER_0_6_85
*447 FILLER_0_6_97
*448 FILLER_0_7_105
*449 FILLER_0_7_111
*450 FILLER_0_7_113
*451 FILLER_0_7_125
*452 FILLER_0_7_21
*453 FILLER_0_7_33
*454 FILLER_0_7_45
*455 FILLER_0_7_53
*456 FILLER_0_7_57
*457 FILLER_0_7_71
*458 FILLER_0_7_81
*459 FILLER_0_7_9
*460 FILLER_0_7_93
*461 FILLER_0_8_109
*462 FILLER_0_8_121
*463 FILLER_0_8_129
*464 FILLER_0_8_15
*465 FILLER_0_8_27
*466 FILLER_0_8_3
*467 FILLER_0_8_42
*468 FILLER_0_8_55
*469 FILLER_0_8_67
*470 FILLER_0_8_79
*471 FILLER_0_8_83
*472 FILLER_0_8_85
*473 FILLER_0_8_97
*474 FILLER_0_9_110
*475 FILLER_0_9_126
*476 FILLER_0_9_130
*477 FILLER_0_9_19
*478 FILLER_0_9_28
*479 FILLER_0_9_3
*480 FILLER_0_9_40
*481 FILLER_0_9_52
*482 FILLER_0_9_57
*483 FILLER_0_9_65
*484 FILLER_0_9_77
*485 FILLER_0_9_89
*486 FILLER_0_9_98
*487 PHY_0
*488 PHY_1
*489 PHY_10
*490 PHY_11
*491 PHY_12
*492 PHY_13
*493 PHY_14
*494 PHY_15
*495 PHY_16
*496 PHY_17
*497 PHY_18
*498 PHY_19
*499 PHY_2
*500 PHY_20
*501 PHY_21
*502 PHY_22
*503 PHY_23
*504 PHY_24
*505 PHY_25
*506 PHY_26
*507 PHY_27
*508 PHY_28
*509 PHY_29
*510 PHY_3
*511 PHY_30
*512 PHY_31
*513 PHY_32
*514 PHY_33
*515 PHY_34
*516 PHY_35
*517 PHY_36
*518 PHY_37
*519 PHY_38
*520 PHY_39
*521 PHY_4
*522 PHY_40
*523 PHY_41
*524 PHY_42
*525 PHY_43
*526 PHY_5
*527 PHY_6
*528 PHY_7
*529 PHY_8
*530 PHY_9
*531 TAP_44
*532 TAP_45
*533 TAP_46
*534 TAP_47
*535 TAP_48
*536 TAP_49
*537 TAP_50
*538 TAP_51
*539 TAP_52
*540 TAP_53
*541 TAP_54
*542 TAP_55
*543 TAP_56
*544 TAP_57
*545 TAP_58
*546 TAP_59
*547 TAP_60
*548 TAP_61
*549 TAP_62
*550 TAP_63
*551 TAP_64
*552 TAP_65
*553 TAP_66
*554 TAP_67
*555 TAP_68
*556 TAP_69
*557 TAP_70
*558 TAP_71
*559 TAP_72
*560 TAP_73
*561 TAP_74
*562 TAP_75
*563 TAP_76
*564 TAP_77
*565 TAP_78
*566 TAP_79
*567 TAP_80
*568 TAP_81
*569 TAP_82
*570 TAP_83
*571 TAP_84
*572 TAP_85
*573 TAP_86
*574 TAP_87
*575 TAP_88
*576 TAP_89
*577 TAP_90
*578 TAP_91
*579 _094_
*580 _095_
*581 _096_
*582 _097_
*583 _098_
*584 _099_
*585 _100_
*586 _101_
*587 _102_
*588 _103_
*589 _104_
*590 _105_
*591 _106_
*592 _107_
*593 _108_
*594 _109_
*595 _110_
*596 _111_
*597 _112_
*598 _113_
*599 _114_
*600 _115_
*601 _116_
*602 _117_
*603 _118_
*604 _119_
*605 _120_
*606 _121_
*607 _122_
*608 _123_
*609 _124_
*610 _125_
*611 _126_
*612 _127_
*613 _128_
*614 _129_
*615 _130_
*616 _131_
*617 _132_
*618 _133_
*619 _134_
*620 _135_
*621 _136_
*622 _137_
*623 _138_
*624 _139_
*625 _140_
*626 _141_
*627 _142_
*628 _143_
*629 _144_
*630 _145_
*631 _146_
*632 _147_
*633 _148_
*634 _149_
*635 _150_
*636 _151_
*637 _152_
*638 _153_
*639 _154_
*640 _155_
*641 _156_
*642 _157_
*643 _158_
*644 _159_
*645 _160_
*646 _161_
*647 _162_
*648 _163_
*649 _164_
*650 _165_
*651 _166_
*652 _167_
*653 _168_
*654 _169_
*655 _170_
*656 _171_
*657 _172_
*658 _173_
*659 _174_
*660 _175_
*661 _176_
*662 _177_
*663 _178_
*664 _179_
*665 _180_
*666 _181_
*667 _182_
*668 _183_
*669 _184_
*670 _185_
*671 _186_
*672 _187_
*673 _188_
*674 _189_
*675 _190_
*676 _191_
*677 _192_
*678 _193_
*679 _194_
*680 _195_
*681 _196_
*682 _197_
*683 _198_
*684 _199_
*685 _200_
*686 _201_
*687 _202_
*688 _203_
*689 input1
*690 input10
*691 input11
*692 input12
*693 input13
*694 input14
*695 input15
*696 input16
*697 input17
*698 input18
*699 input19
*700 input2
*701 input20
*702 input21
*703 input22
*704 input23
*705 input24
*706 input25
*707 input26
*708 input27
*709 input28
*710 input29
*711 input3
*712 input30
*713 input31
*714 input32
*715 input4
*716 input5
*717 input6
*718 input7
*719 input8
*720 input9
*721 output33
*722 output34
*723 output35
*724 output36
*725 output37
*726 output38
*727 output39
*728 output40
*729 output41
*730 output42
*731 output43
*732 output44
*733 output45
*734 output46
*735 output47
*736 output48

*PORTS
A[0] I
A[10] I
A[11] I
A[12] I
A[13] I
A[14] I
A[15] I
A[1] I
A[2] I
A[3] I
A[4] I
A[5] I
A[6] I
A[7] I
A[8] I
A[9] I
B[0] I
B[10] I
B[11] I
B[12] I
B[13] I
B[14] I
B[15] I
B[1] I
B[2] I
B[3] I
B[4] I
B[5] I
B[6] I
B[7] I
B[8] I
B[9] I
SUM[0] O
SUM[10] O
SUM[11] O
SUM[12] O
SUM[13] O
SUM[14] O
SUM[15] O
SUM[1] O
SUM[2] O
SUM[3] O
SUM[4] O
SUM[5] O
SUM[6] O
SUM[7] O
SUM[8] O
SUM[9] O

*D_NET *1 0.000994979
*CONN
*P A[0] I
*I *689:A I *D sky130_fd_sc_hd__buf_1
*CAP
1 A[0] 0.000447251
2 *689:A 0
3 *1:13 0.000447251
4 *1:13 SUM[8] 0
5 *1:13 *735:A 0.000100477
6 *1:13 *3:13 0
7 *1:13 *10:11 0
8 *1:13 *146:10 0
*RES
1 A[0] *1:13 30.0533 
2 *1:13 *689:A 23 
*END

*D_NET *2 0.00111231
*CONN
*P A[10] I
*I *700:A I *D sky130_fd_sc_hd__clkbuf_2
*CAP
1 A[10] 0.000527708
2 *700:A 0
3 *2:15 0.000527708
4 *2:15 SUM[0] 0
5 *2:15 *718:A 0
6 *2:15 *11:13 0
7 *2:15 *17:11 0
8 *2:15 *156:8 5.68958e-05
*RES
1 A[10] *2:15 30.9855 
2 *2:15 *700:A 23 
*END

*D_NET *3 0.000590346
*CONN
*P A[11] I
*I *711:A I *D sky130_fd_sc_hd__clkbuf_2
*CAP
1 A[11] 0.000295173
2 *711:A 0
3 *3:13 0.000295173
4 *3:13 *19:13 0
5 *1:13 *3:13 0
*RES
1 A[11] *3:13 27.0053 
2 *3:13 *711:A 23 
*END

*D_NET *4 0.00112664
*CONN
*P A[12] I
*I *715:A I *D sky130_fd_sc_hd__clkbuf_2
*CAP
1 A[12] 0.000563322
2 *715:A 0
3 *4:15 0.000563322
4 *4:15 SUM[3] 0
*RES
1 A[12] *4:15 28.8786 
2 *4:15 *715:A 23 
*END

*D_NET *5 0.000636948
*CONN
*P A[13] I
*I *716:A I *D sky130_fd_sc_hd__clkbuf_2
*CAP
1 A[13] 0.000269231
2 *716:A 0.000269231
3 *716:A *8:13 0
4 *716:A *12:13 0
5 *716:A *27:11 9.84851e-05
6 *716:A *28:9 0
*RES
1 A[13] *716:A 49.6532 
*END

*D_NET *6 0.00176835
*CONN
*P A[14] I
*I *717:A I *D sky130_fd_sc_hd__buf_1
*CAP
1 A[14] 0.000748232
2 *717:A 0
3 *6:13 0.000748232
4 *6:13 *10:11 0.000100477
5 *6:13 *20:15 0
6 *6:13 *47:8 5.92163e-05
7 *6:13 *146:8 7.9566e-05
8 *6:13 *157:10 3.26241e-05
*RES
1 A[14] *6:13 30.5357 
2 *6:13 *717:A 23 
*END

*D_NET *7 0.000530556
*CONN
*P A[15] I
*I *718:A I *D sky130_fd_sc_hd__buf_1
*CAP
1 A[15] 0.000262526
2 *718:A 0.000262526
3 *718:A *9:13 0
4 *718:A *156:10 5.50381e-06
5 *2:15 *718:A 0
*RES
1 A[15] *718:A 48.7862 
*END

*D_NET *8 0.000676774
*CONN
*P A[1] I
*I *719:A I *D sky130_fd_sc_hd__buf_1
*CAP
1 A[1] 0.000338387
2 *719:A 0
3 *8:13 0.000338387
4 *8:13 SUM[7] 0
5 *8:13 *188:10 0
6 *8:13 *191:8 0
7 *716:A *8:13 0
*RES
1 A[1] *8:13 27.9375 
2 *8:13 *719:A 23 
*END

*D_NET *9 0.000765833
*CONN
*P A[2] I
*I *720:A I *D sky130_fd_sc_hd__clkbuf_2
*CAP
1 A[2] 0.000362485
2 *720:A 0
3 *9:13 0.000362485
4 *9:13 SUM[11] 0
5 *9:13 *156:10 4.08643e-05
6 *718:A *9:13 0
*RES
1 A[2] *9:13 28.0233 
2 *9:13 *720:A 23 
*END

*D_NET *10 0.00181119
*CONN
*P A[3] I
*I *690:A I *D sky130_fd_sc_hd__clkbuf_2
*CAP
1 A[3] 0.000855359
2 *690:A 0
3 *10:11 0.000855359
4 *1:13 *10:11 0
5 *6:13 *10:11 0.000100477
*RES
1 A[3] *10:11 33.7257 
2 *10:11 *690:A 23 
*END

*D_NET *11 0.00167151
*CONN
*P A[4] I
*I *691:A I *D sky130_fd_sc_hd__clkbuf_2
*CAP
1 A[4] 0.000833613
2 *691:A 0
3 *11:13 0.000833613
4 *11:13 *695:A 0
5 *11:13 *17:11 0
6 *11:13 *171:10 4.2812e-06
7 *2:15 *11:13 0
*RES
1 A[4] *11:13 33.8387 
2 *11:13 *691:A 23 
*END

*D_NET *12 0.000696529
*CONN
*P A[5] I
*I *692:A I *D sky130_fd_sc_hd__clkbuf_2
*CAP
1 A[5] 0.000348264
2 *692:A 0
3 *12:13 0.000348264
4 *12:13 SUM[15] 0
5 *12:13 *27:11 0
6 *12:13 *28:9 0
7 *716:A *12:13 0
*RES
1 A[5] *12:13 27.7096 
2 *12:13 *692:A 23 
*END

*D_NET *13 0.000645996
*CONN
*P A[6] I
*I *693:A I *D sky130_fd_sc_hd__clkbuf_2
*CAP
1 A[6] 0.000297723
2 *693:A 0.000297723
3 *693:A *30:13 0
4 *693:A *32:13 0
5 *693:A *181:10 5.055e-05
*RES
1 A[6] *693:A 49.6148 
*END

*D_NET *14 0.000870118
*CONN
*P A[7] I
*I *694:A I *D sky130_fd_sc_hd__clkbuf_2
*CAP
1 A[7] 0.000435059
2 *694:A 0.000435059
*RES
1 A[7] *694:A 47.5907 
*END

*D_NET *15 0.000941264
*CONN
*P A[8] I
*I *695:A I *D sky130_fd_sc_hd__clkbuf_2
*CAP
1 A[8] 0.000470632
2 *695:A 0.000470632
3 *11:13 *695:A 0
*RES
1 A[8] *695:A 49.7657 
*END

*D_NET *16 0.00165425
*CONN
*P A[9] I
*I *696:A I *D sky130_fd_sc_hd__clkbuf_2
*CAP
1 A[9] 0.000589094
2 *696:A 0
3 *16:13 0.000589094
4 *16:13 SUM[3] 0
5 *16:13 *18:13 0
6 *16:13 *30:13 0.000146984
7 *16:13 *168:8 7.992e-05
8 *16:13 *181:10 0.000249153
*RES
1 A[9] *16:13 32.6693 
2 *16:13 *696:A 23 
*END

*D_NET *17 0.00129643
*CONN
*P B[0] I
*I *697:A I *D sky130_fd_sc_hd__clkbuf_1
*CAP
1 B[0] 0.000592126
2 *697:A 0
3 *17:11 0.000592126
4 *17:11 *171:10 0.00011218
5 *2:15 *17:11 0
6 *11:13 *17:11 0
*RES
1 B[0] *17:11 28.1121 
2 *17:11 *697:A 23 
*END

*D_NET *18 0.00200376
*CONN
*P B[10] I
*I *698:A I *D sky130_fd_sc_hd__clkbuf_2
*CAP
1 B[10] 0.000932112
2 *698:A 0
3 *18:13 0.000932112
4 *18:13 SUM[2] 0
5 *18:13 SUM[3] 0
6 *18:13 *30:13 5.20623e-05
7 *18:13 *181:10 8.74733e-05
8 *16:13 *18:13 0
*RES
1 B[10] *18:13 41.4816 
2 *18:13 *698:A 23 
*END

*D_NET *19 0.000713748
*CONN
*P B[11] I
*I *699:A I *D sky130_fd_sc_hd__clkbuf_2
*CAP
1 B[11] 0.000356874
2 *699:A 0
3 *19:13 0.000356874
4 *19:13 *707:A 0
5 *19:13 *188:10 0
6 *3:13 *19:13 0
*RES
1 B[11] *19:13 28.4139 
2 *19:13 *699:A 23 
*END

*D_NET *20 0.00170503
*CONN
*P B[12] I
*I *701:A I *D sky130_fd_sc_hd__clkbuf_2
*CAP
1 B[12] 0.000852515
2 *701:A 0
3 *20:15 0.000852515
4 *20:15 SUM[4] 0
5 *20:15 SUM[8] 0
6 *20:15 *47:8 0
7 *6:13 *20:15 0
*RES
1 B[12] *20:15 32.0439 
2 *20:15 *701:A 23 
*END

*D_NET *21 0.00117403
*CONN
*P B[13] I
*I *702:A I *D sky130_fd_sc_hd__clkbuf_2
*CAP
1 B[13] 0.000587017
2 *702:A 0
3 *21:13 0.000587017
*RES
1 B[13] *21:13 27.325 
2 *21:13 *702:A 23 
*END

*D_NET *22 0.00126308
*CONN
*P B[14] I
*I *703:A I *D sky130_fd_sc_hd__buf_1
*CAP
1 B[14] 0.000589045
2 *703:A 0
3 *22:15 0.000589045
4 *22:15 *158:10 2.93658e-05
5 *22:15 *161:8 5.56279e-05
*RES
1 B[14] *22:15 27.8221 
2 *22:15 *703:A 23 
*END

*D_NET *23 0.00062066
*CONN
*P B[15] I
*I *704:A I *D sky130_fd_sc_hd__clkbuf_1
*CAP
1 B[15] 0.00031033
2 *704:A 0
3 *23:13 0.00031033
4 *23:13 SUM[7] 0
5 *23:13 *707:A 0
6 *23:13 *160:8 0
7 *23:13 *188:10 0
*RES
1 B[15] *23:13 27.5853 
2 *23:13 *704:A 23 
*END

*D_NET *24 0.00104621
*CONN
*P B[1] I
*I *705:A I *D sky130_fd_sc_hd__dlymetal6s2s_1
*CAP
1 B[1] 0.000523103
2 *705:A 0.000523103
*RES
1 B[1] *705:A 49.5793 
*END

*D_NET *25 0.00106951
*CONN
*P B[2] I
*I *706:A I *D sky130_fd_sc_hd__clkbuf_2
*CAP
1 B[2] 0.000534757
2 *706:A 0.000534757
*RES
1 B[2] *706:A 49.7036 
*END

*D_NET *26 0.000579861
*CONN
*P B[3] I
*I *707:A I *D sky130_fd_sc_hd__clkbuf_2
*CAP
1 B[3] 0.00028993
2 *707:A 0.00028993
3 *19:13 *707:A 0
4 *23:13 *707:A 0
*RES
1 B[3] *707:A 49.6532 
*END

*D_NET *27 0.00196226
*CONN
*P B[4] I
*I *708:A I *D sky130_fd_sc_hd__clkbuf_2
*CAP
1 B[4] 0.000928532
2 *708:A 0
3 *27:11 0.000928532
4 *27:11 *165:10 0
5 *27:11 *177:12 0
6 *27:11 *188:8 6.71408e-06
7 *716:A *27:11 9.84851e-05
8 *12:13 *27:11 0
*RES
1 B[4] *27:11 32.1307 
2 *27:11 *708:A 23 
*END

*D_NET *28 0.00187394
*CONN
*P B[5] I
*I *709:A I *D sky130_fd_sc_hd__clkbuf_2
*CAP
1 B[5] 0.000936969
2 *709:A 0
3 *28:9 0.000936969
4 *716:A *28:9 0
5 *12:13 *28:9 0
*RES
1 B[5] *28:9 34.6371 
2 *28:9 *709:A 23 
*END

*D_NET *29 0.000664709
*CONN
*P B[6] I
*I *710:A I *D sky130_fd_sc_hd__clkbuf_2
*CAP
1 B[6] 0.000320895
2 *710:A 0.000320895
3 *710:A SUM[9] 0
4 *710:A *32:13 0
5 *710:A *181:10 2.29192e-05
*RES
1 B[6] *710:A 49.2626 
*END

*D_NET *30 0.000941562
*CONN
*P B[7] I
*I *712:A I *D sky130_fd_sc_hd__clkbuf_2
*CAP
1 B[7] 0.00032155
2 *712:A 0
3 *30:13 0.00032155
4 *30:13 *181:10 9.94151e-05
5 *693:A *30:13 0
6 *16:13 *30:13 0.000146984
7 *18:13 *30:13 5.20623e-05
*RES
1 B[7] *30:13 27.319 
2 *30:13 *712:A 23 
*END

*D_NET *31 0.000870118
*CONN
*P B[8] I
*I *713:A I *D sky130_fd_sc_hd__clkbuf_2
*CAP
1 B[8] 0.000435059
2 *713:A 0.000435059
*RES
1 B[8] *713:A 47.5907 
*END

*D_NET *32 0.000915618
*CONN
*P B[9] I
*I *714:A I *D sky130_fd_sc_hd__clkbuf_2
*CAP
1 B[9] 0.000330431
2 *714:A 0
3 *32:13 0.000330431
4 *32:13 *156:18 0.000100061
5 *32:13 *181:10 0.000154695
6 *693:A *32:13 0
7 *710:A *32:13 0
*RES
1 B[9] *32:13 28.0233 
2 *32:13 *714:A 23 
*END

*D_NET *33 0.00140221
*CONN
*P SUM[0] O
*I *721:X O *D sky130_fd_sc_hd__clkbuf_4
*CAP
1 SUM[0] 0.000376221
2 *721:X 0.000324886
3 *33:8 0.000701107
4 *2:15 SUM[0] 0
*RES
1 *721:X *33:8 43.8621 
2 *33:8 SUM[0] 8.34786 
*END

*D_NET *34 0.00115496
*CONN
*P SUM[10] O
*I *722:X O *D sky130_fd_sc_hd__clkbuf_4
*CAP
1 SUM[10] 0.000567029
2 *722:X 0.000567029
3 SUM[10] *158:10 2.09031e-05
*RES
1 *722:X SUM[10] 49.4964 
*END

*D_NET *35 0.000676585
*CONN
*P SUM[11] O
*I *723:X O *D sky130_fd_sc_hd__buf_2
*CAP
1 SUM[11] 0.00033301
2 *723:X 0.00033301
3 SUM[11] SUM[9] 0
4 SUM[11] *156:10 1.05658e-05
5 *9:13 SUM[11] 0
*RES
1 *723:X SUM[11] 47.1648 
*END

*D_NET *36 0.00121071
*CONN
*P SUM[12] O
*I *724:X O *D sky130_fd_sc_hd__clkbuf_4
*CAP
1 SUM[12] 0.000495201
2 *724:X 0.000495201
3 SUM[12] *724:A 2.93747e-05
4 SUM[12] *39:10 0.000190935
*RES
1 *724:X SUM[12] 48.8129 
*END

*D_NET *37 0.000753695
*CONN
*P SUM[13] O
*I *725:X O *D sky130_fd_sc_hd__clkbuf_4
*CAP
1 SUM[13] 0.000376848
2 *725:X 0.000376848
3 SUM[13] *39:10 0
*RES
1 *725:X SUM[13] 45.9957 
*END

*D_NET *38 0.000839267
*CONN
*P SUM[14] O
*I *726:X O *D sky130_fd_sc_hd__clkbuf_4
*CAP
1 SUM[14] 0.000419634
2 *726:X 0.000419634
*RES
1 *726:X SUM[14] 47.2386 
*END

*D_NET *39 0.00248877
*CONN
*P SUM[15] O
*I *727:X O *D sky130_fd_sc_hd__clkbuf_4
*CAP
1 SUM[15] 0.000577855
2 *727:X 0.000526542
3 *39:10 0.0011044
4 *39:10 *724:A 2.64616e-05
5 *39:10 *174:8 6.25829e-05
6 SUM[12] *39:10 0.000190935
7 SUM[13] *39:10 0
8 *12:13 SUM[15] 0
*RES
1 *727:X *39:10 49.5275 
2 *39:10 SUM[15] 10.2176 
*END

*D_NET *40 0.000908482
*CONN
*P SUM[1] O
*I *728:X O *D sky130_fd_sc_hd__clkbuf_4
*CAP
1 SUM[1] 0.000454241
2 *728:X 0.000454241
*RES
1 *728:X SUM[1] 49.4136 
*END

*D_NET *41 0.00220133
*CONN
*P SUM[2] O
*I *729:X O *D sky130_fd_sc_hd__clkbuf_4
*CAP
1 SUM[2] 0.000459278
2 *729:X 0.000430781
3 *41:10 0.000890059
4 *41:10 SUM[3] 5.79559e-05
5 *41:10 *730:A 0.000363254
6 *18:13 SUM[2] 0
*RES
1 *729:X *41:10 47.2179 
2 *41:10 SUM[2] 10.1086 
*END

*D_NET *42 0.0012039
*CONN
*P SUM[3] O
*I *730:X O *D sky130_fd_sc_hd__buf_2
*CAP
1 SUM[3] 0.000572971
2 *730:X 0.000572971
3 *4:15 SUM[3] 0
4 *16:13 SUM[3] 0
5 *18:13 SUM[3] 0
6 *41:10 SUM[3] 5.79559e-05
*RES
1 *730:X SUM[3] 49.9729 
*END

*D_NET *43 0.00126277
*CONN
*P SUM[4] O
*I *731:X O *D sky130_fd_sc_hd__clkbuf_4
*CAP
1 SUM[4] 0.000539898
2 *731:X 7.9775e-05
3 *43:10 0.000619673
4 *43:10 *189:10 2.34195e-05
5 *20:15 SUM[4] 0
*RES
1 *731:X *43:10 39.595 
2 *43:10 SUM[4] 11.5171 
*END

*D_NET *44 0.00120954
*CONN
*P SUM[5] O
*I *732:X O *D sky130_fd_sc_hd__clkbuf_4
*CAP
1 SUM[5] 0.000599723
2 *732:X 0.000599723
3 SUM[5] *189:10 1.0092e-05
*RES
1 *732:X SUM[5] 49.6829 
*END

*D_NET *45 0.000908482
*CONN
*P SUM[6] O
*I *733:X O *D sky130_fd_sc_hd__clkbuf_4
*CAP
1 SUM[6] 0.000454241
2 *733:X 0.000454241
*RES
1 *733:X SUM[6] 49.4136 
*END

*D_NET *46 0.000541131
*CONN
*P SUM[7] O
*I *734:X O *D sky130_fd_sc_hd__clkbuf_4
*CAP
1 SUM[7] 0.000270566
2 *734:X 0.000270566
3 SUM[7] *188:10 0
4 *8:13 SUM[7] 0
5 *23:13 SUM[7] 0
*RES
1 *734:X SUM[7] 49.5289 
*END

*D_NET *47 0.00105004
*CONN
*P SUM[8] O
*I *735:X O *D sky130_fd_sc_hd__clkbuf_4
*CAP
1 SUM[8] 0.000249832
2 *735:X 0.00024558
3 *47:8 0.000495412
4 *1:13 SUM[8] 0
5 *6:13 *47:8 5.92163e-05
6 *20:15 SUM[8] 0
7 *20:15 *47:8 0
*RES
1 *735:X *47:8 42.5468 
2 *47:8 SUM[8] 8.84373 
*END

*D_NET *48 0.000827289
*CONN
*P SUM[9] O
*I *736:X O *D sky130_fd_sc_hd__buf_2
*CAP
1 SUM[9] 0.00037768
2 *736:X 0.00037768
3 SUM[9] *181:10 7.19284e-05
4 SUM[11] SUM[9] 0
5 *710:A SUM[9] 0
*RES
1 *736:X SUM[9] 49.9669 
*END

*D_NET *51 0.0103211
*CONN
*I *643:B I *D sky130_fd_sc_hd__nor2_1
*I *648:A I *D sky130_fd_sc_hd__or2_1
*I *638:A I *D sky130_fd_sc_hd__xnor2_1
*I *642:A3 I *D sky130_fd_sc_hd__o31ai_1
*I *631:Y O *D sky130_fd_sc_hd__xnor2_2
*CAP
1 *643:B 0
2 *648:A 0.000536777
3 *638:A 7.77599e-05
4 *642:A3 0.000448356
5 *631:Y 0
6 *51:83 0.000375107
7 *51:58 0.00167404
8 *51:39 0.000595021
9 *51:29 0.0013763
10 *51:25 0.000789705
11 *51:4 0.00114118
12 *638:A *149:34 1.59094e-05
13 *642:A3 *642:A1 0.000100069
14 *642:A3 *642:A2 7.42856e-05
15 *642:A3 *60:18 0.000248625
16 *642:A3 *69:22 6.70361e-05
17 *648:A *628:A2 4.3198e-05
18 *648:A *629:A1 0.000143163
19 *648:A *629:A2 0.000146089
20 *648:A *629:B1 5.5792e-05
21 *648:A *648:B 5.79559e-05
22 *648:A *66:10 5.56279e-05
23 *648:A *128:31 6.67968e-05
24 *648:A *128:41 2.46906e-05
25 *51:25 *149:24 0.000135037
26 *51:25 *152:18 3.8869e-05
27 *51:25 *152:35 0.00016217
28 *51:25 *156:10 0
29 *51:25 *156:22 6.15779e-05
30 *51:25 *170:6 2.14462e-05
31 *51:25 *170:12 2.36123e-05
32 *51:25 *170:36 0.0001366
33 *51:29 *59:10 8.50457e-05
34 *51:29 *149:24 0.000191572
35 *51:39 *149:24 0.000337093
36 *51:39 *149:34 0.000232391
37 *51:39 *166:10 1.85916e-05
38 *51:39 *168:31 3.7122e-06
39 *51:39 *180:14 0
40 *51:58 *640:A1 0.000225179
41 *51:58 *59:10 4.4195e-06
42 *51:58 *151:48 2.69366e-05
43 *51:83 *643:A 0.000137361
44 *51:83 *62:8 1.60762e-05
45 *51:83 *62:23 3.85196e-05
46 *51:83 *139:21 0.000276793
47 *51:83 *139:32 3.46013e-05
*RES
1 *631:Y *51:4 23 
2 *51:4 *642:A3 32.9429 
3 *51:4 *51:25 39.9221 
4 *51:25 *51:29 17.61 
5 *51:29 *51:39 39.6114 
6 *51:39 *638:A 39.0979 
7 *51:29 *51:58 25.3364 
8 *51:58 *648:A 33.005 
9 *51:58 *51:83 37.5193 
10 *51:83 *643:B 23 
*END

*D_NET *52 0.00320603
*CONN
*I *635:A2 I *D sky130_fd_sc_hd__o21ai_1
*I *649:A I *D sky130_fd_sc_hd__nor2_1
*I *636:C I *D sky130_fd_sc_hd__nor3_1
*I *632:X O *D sky130_fd_sc_hd__or2_1
*CAP
1 *635:A2 0
2 *649:A 8.75093e-05
3 *636:C 0
4 *632:X 6.85998e-05
5 *52:24 0.000248883
6 *52:14 0.000637663
7 *52:12 0.000605068
8 *52:8 0.000372397
9 *649:A *67:10 1.24376e-05
10 *52:8 *131:18 3.76761e-05
11 *52:12 *57:8 0.000450145
12 *52:14 *55:6 6.64159e-06
13 *52:14 *55:16 6.92185e-06
14 *52:14 *56:39 6.09861e-06
15 *52:14 *57:8 0.000139857
16 *52:24 *636:B 5.0657e-05
17 *52:24 *56:14 7.51453e-06
18 *52:24 *56:39 0.000356853
19 *52:24 *67:10 0.000111106
*RES
1 *632:X *52:8 39.2014 
2 *52:8 *52:12 19.9093 
3 *52:12 *52:14 3.95643 
4 *52:14 *52:24 36.4421 
5 *52:24 *636:C 23 
6 *52:14 *649:A 24.9679 
7 *52:12 *635:A2 23 
*END

*D_NET *53 0.00053302
*CONN
*I *634:B1 I *D sky130_fd_sc_hd__o21ai_1
*I *633:X O *D sky130_fd_sc_hd__a22o_1
*CAP
1 *634:B1 0
2 *633:X 9.97963e-05
3 *53:10 9.97963e-05
4 *53:10 *141:12 0.000195674
5 *53:10 *150:48 0.000137754
*RES
1 *633:X *53:10 40.5271 
2 *53:10 *634:B1 38 
*END

*D_NET *54 0.00372677
*CONN
*I *652:A1 I *D sky130_fd_sc_hd__o21ai_1
*I *635:B1 I *D sky130_fd_sc_hd__o21ai_1
*I *634:Y O *D sky130_fd_sc_hd__o21ai_1
*CAP
1 *652:A1 0
2 *635:B1 6.98159e-05
3 *634:Y 0.000911943
4 *54:25 0.000305454
5 *54:6 0.00128721
6 *635:B1 *637:A 3.23857e-06
7 *635:B1 *55:6 1.24376e-05
8 *635:B1 *57:8 1.21972e-05
9 *635:B1 *135:25 5.21195e-05
10 *54:6 *624:A 0.000188934
11 *54:6 *57:8 0.000443471
12 *54:6 *135:25 8.92035e-05
13 *54:6 *139:8 9.79925e-05
14 *54:6 *169:33 5.56279e-05
15 *54:25 *65:29 0.000102794
16 *54:25 *66:14 9.4333e-05
*RES
1 *634:Y *54:6 40.7729 
2 *54:6 *635:B1 24.4707 
3 *54:6 *54:25 35.4064 
4 *54:25 *652:A1 23 
*END

*D_NET *55 0.00156556
*CONN
*I *637:A I *D sky130_fd_sc_hd__or2_1
*I *670:B2 I *D sky130_fd_sc_hd__a2bb2o_1
*I *635:Y O *D sky130_fd_sc_hd__o21ai_1
*CAP
1 *637:A 2.28094e-05
2 *670:B2 0
3 *635:Y 0.000115031
4 *55:16 0.00047735
5 *55:6 0.00061519
6 *55:6 *57:8 9.87385e-06
7 *55:16 *56:39 1.01436e-05
8 *55:16 *66:37 0
9 *55:16 *69:32 0.000230299
10 *55:16 *83:14 5.56279e-05
11 *635:B1 *637:A 3.23857e-06
12 *635:B1 *55:6 1.24376e-05
13 *52:14 *55:6 6.64159e-06
14 *52:14 *55:16 6.92185e-06
*RES
1 *635:Y *55:6 24.5743 
2 *55:6 *55:16 38.3479 
3 *55:16 *670:B2 23 
4 *55:6 *637:A 23.4971 
*END

*D_NET *56 0.00419209
*CONN
*I *637:B I *D sky130_fd_sc_hd__or2_1
*I *671:A1 I *D sky130_fd_sc_hd__a211o_1
*I *636:Y O *D sky130_fd_sc_hd__nor3_1
*CAP
1 *637:B 0
2 *671:A1 0
3 *636:Y 0
4 *56:39 0.00044021
5 *56:20 4.62419e-05
6 *56:14 0.00130483
7 *56:4 0.00169879
8 *56:14 *606:B 0.000110454
9 *56:14 *636:A 0.00010653
10 *56:14 *636:B 3.52233e-06
11 *56:14 *671:A2 4.35243e-06
12 *56:14 *85:30 7.72842e-06
13 *56:20 *95:37 8.88214e-05
14 *52:14 *56:39 6.09861e-06
15 *52:24 *56:14 7.51453e-06
16 *52:24 *56:39 0.000356853
17 *55:16 *56:39 1.01436e-05
*RES
1 *636:Y *56:4 23 
2 *56:4 *56:14 48.995 
3 *56:14 *56:20 31.2014 
4 *56:20 *671:A1 23 
5 *56:4 *56:39 38.7104 
6 *56:39 *637:B 23 
*END

*D_NET *57 0.00352489
*CONN
*I *638:B I *D sky130_fd_sc_hd__xnor2_1
*I *637:X O *D sky130_fd_sc_hd__or2_1
*CAP
1 *638:B 0
2 *637:X 0.000957754
3 *57:8 0.000957754
4 *57:8 *624:A 0.000106277
5 *57:8 *634:A2 0.000273649
6 *57:8 *135:25 5.43544e-05
7 *57:8 *149:34 9.77405e-05
8 *57:8 *169:33 2.1819e-05
9 *635:B1 *57:8 1.21972e-05
10 *52:12 *57:8 0.000450145
11 *52:14 *57:8 0.000139857
12 *54:6 *57:8 0.000443471
13 *55:6 *57:8 9.87385e-06
*RES
1 *637:X *57:8 45.0814 
2 *57:8 *638:B 23 
*END

*D_NET *58 0.00604397
*CONN
*I *646:A I *D sky130_fd_sc_hd__xnor2_1
*I *656:A I *D sky130_fd_sc_hd__nor2_1
*I *648:B I *D sky130_fd_sc_hd__or2_1
*I *639:Y O *D sky130_fd_sc_hd__xnor2_2
*CAP
1 *646:A 0
2 *656:A 0.000131275
3 *648:B 0.000165056
4 *639:Y 0.000912185
5 *58:40 0.000154541
6 *58:12 0.00124204
7 *58:6 0.00201243
8 *648:B *644:A2 0.000116782
9 *656:A *62:23 5.56279e-05
10 *58:12 *644:A2 4.2812e-06
11 *58:12 *62:23 0.000163867
12 *58:12 *63:10 3.4299e-05
13 *58:12 *144:18 0.000762483
14 *58:40 *139:49 9.66585e-05
15 *58:40 *162:10 0.00013449
16 *648:A *648:B 5.79559e-05
*RES
1 *639:Y *58:6 33.6264 
2 *58:6 *58:12 32.0271 
3 *58:12 *648:B 41.9357 
4 *58:12 *656:A 40.0507 
5 *58:6 *58:40 33.0036 
6 *58:40 *646:A 23 
*END

*D_NET *59 0.000411697
*CONN
*I *641:B1 I *D sky130_fd_sc_hd__o21ai_1
*I *640:X O *D sky130_fd_sc_hd__a22o_1
*CAP
1 *641:B1 0
2 *640:X 0.000132534
3 *59:10 0.000132534
4 *59:10 *149:24 2.1198e-05
5 *59:10 *170:18 3.59648e-05
6 *51:29 *59:10 8.50457e-05
7 *51:58 *59:10 4.4195e-06
*RES
1 *640:X *59:10 40.5271 
2 *59:10 *641:B1 38 
*END

*D_NET *60 0.00227931
*CONN
*I *642:B1 I *D sky130_fd_sc_hd__o31ai_1
*I *663:A1 I *D sky130_fd_sc_hd__o221a_1
*I *641:Y O *D sky130_fd_sc_hd__o21ai_1
*CAP
1 *642:B1 0
2 *663:A1 8.06207e-05
3 *641:Y 0.000406776
4 *60:18 0.000472614
5 *60:10 0.000798769
6 *60:10 *69:22 8.50457e-05
7 *60:10 *152:45 8.06804e-06
8 *60:10 *170:12 7.87243e-05
9 *60:18 *642:A1 0.000100069
10 *642:A3 *60:18 0.000248625
*RES
1 *641:Y *60:10 43.1579 
2 *60:10 *60:18 22.8093 
3 *60:18 *663:A1 24.5743 
4 *60:18 *642:B1 23 
*END

*D_NET *61 0.00204642
*CONN
*I *645:A I *D sky130_fd_sc_hd__or2_1
*I *678:A1 I *D sky130_fd_sc_hd__a31o_1
*I *642:Y O *D sky130_fd_sc_hd__o31ai_1
*CAP
1 *645:A 0
2 *678:A1 0
3 *642:Y 0.000194388
4 *61:24 0.000376794
5 *61:16 0.000666702
6 *61:8 0.000484296
7 *61:8 *139:49 0.000133424
8 *61:16 *64:10 1.24298e-05
9 *61:24 *678:B1 1.83408e-05
10 *61:24 *679:A1 5.52004e-05
11 *61:24 *63:14 0.000100069
12 *61:24 *89:35 4.77164e-06
*RES
1 *642:Y *61:8 42.0186 
2 *61:8 *61:16 19.5986 