*SPEF "ieee 1481-1999"
*DESIGN "csa"
*DATE "11:11:11 Fri 11 11, 1111"
*VENDOR "OpenRCX"
*PROGRAM "Parallel Extraction"
*VERSION "1.0"
*DESIGN_FLOW "NAME_SCOPE LOCAL" "PIN_CAP NONE"
*DIVIDER /
*DELIMITER :
*BUS_DELIMITER []
*T_UNIT 1 NS
*C_UNIT 1 PF
*R_UNIT 1 OHM
*L_UNIT 1 HENRY

*NAME_MAP
*1 A[0]
*2 A[10]
*3 A[11]
*4 A[12]
*5 A[13]
*6 A[14]
*7 A[15]
*8 A[1]
*9 A[2]
*10 A[3]
*11 A[4]
*12 A[5]
*13 A[6]
*14 A[7]
*15 A[8]
*16 A[9]
*17 B[0]
*18 B[10]
*19 B[11]
*20 B[12]
*21 B[13]
*22 B[14]
*23 B[15]
*24 B[1]
*25 B[2]
*26 B[3]
*27 B[4]
*28 B[5]
*29 B[6]
*30 B[7]
*31 B[8]
*32 B[9]
*33 C[0]
*34 C[10]
*35 C[11]
*36 C[12]
*37 C[13]
*38 C[14]
*39 C[15]
*40 C[1]
*41 C[2]
*42 C[3]
*43 C[4]
*44 C[5]
*45 C[6]
*46 C[7]
*47 C[8]
*48 C[9]
*49 Carry[0]
*50 Carry[10]
*51 Carry[11]
*52 Carry[12]
*53 Carry[13]
*54 Carry[14]
*55 Carry[15]
*56 Carry[1]
*57 Carry[2]
*58 Carry[3]
*59 Carry[4]
*60 Carry[5]
*61 Carry[6]
*62 Carry[7]
*63 Carry[8]
*64 Carry[9]
*65 Sum[0]
*66 Sum[10]
*67 Sum[11]
*68 Sum[12]
*69 Sum[13]
*70 Sum[14]
*71 Sum[15]
*72 Sum[1]
*73 Sum[2]
*74 Sum[3]
*75 Sum[4]
*76 Sum[5]
*77 Sum[6]
*78 Sum[7]
*79 Sum[8]
*80 Sum[9]
*83 _00_
*84 _01_
*85 _02_
*86 _03_
*87 _04_
*88 _05_
*89 _06_
*90 _07_
*91 _08_
*92 _09_
*93 _10_
*94 _11_
*95 _12_
*96 _13_
*97 _14_
*98 _15_
*99 _16_
*100 _17_
*101 _18_
*102 _19_
*103 _20_
*104 _21_
*105 _22_
*106 _23_
*107 _24_
*108 _25_
*109 _26_
*110 _27_
*111 _28_
*112 _29_
*113 _30_
*114 _31_
*115 net1
*116 net10
*117 net11
*118 net12
*119 net13
*120 net14
*121 net15
*122 net16
*123 net17
*124 net18
*125 net19
*126 net2
*127 net20
*128 net21
*129 net22
*130 net23
*131 net24
*132 net25
*133 net26
*134 net27
*135 net28
*136 net29
*137 net3
*138 net30
*139 net31
*140 net32
*141 net33
*142 net34
*143 net35
*144 net36
*145 net37
*146 net38
*147 net39
*148 net4
*149 net40
*150 net41
*151 net42
*152 net43
*153 net44
*154 net45
*155 net46
*156 net47
*157 net48
*158 net49
*159 net5
*160 net50
*161 net51
*162 net52
*163 net53
*164 net54
*165 net55
*166 net56
*167 net57
*168 net58
*169 net59
*170 net6
*171 net60
*172 net61
*173 net62
*174 net63
*175 net64
*176 net65
*177 net66
*178 net67
*179 net68
*180 net69
*181 net7
*182 net70
*183 net71
*184 net72
*185 net73
*186 net74
*187 net75
*188 net76
*189 net77
*190 net78
*191 net79
*192 net8
*193 net80
*194 net9
*195 FILLER_0_0_107
*196 FILLER_0_0_29
*197 FILLER_0_0_3
*198 FILLER_0_0_37
*199 FILLER_0_0_44
*200 FILLER_0_0_48
*201 FILLER_0_0_57
*202 FILLER_0_0_70
*203 FILLER_0_0_76
*204 FILLER_0_0_83
*205 FILLER_0_0_85
*206 FILLER_0_0_93
*207 FILLER_0_10_12
*208 FILLER_0_10_24
*209 FILLER_0_10_29
*210 FILLER_0_10_41
*211 FILLER_0_10_53
*212 FILLER_0_10_65
*213 FILLER_0_10_77
*214 FILLER_0_10_83
*215 FILLER_0_10_85
*216 FILLER_0_10_97
*217 FILLER_0_11_22
*218 FILLER_0_11_46
*219 FILLER_0_11_54
*220 FILLER_0_11_57
*221 FILLER_0_11_6
*222 FILLER_0_11_61
*223 FILLER_0_11_69
*224 FILLER_0_11_81
*225 FILLER_0_11_93
*226 FILLER_0_12_14
*227 FILLER_0_12_26
*228 FILLER_0_12_3
*229 FILLER_0_12_43
*230 FILLER_0_12_55
*231 FILLER_0_12_65
*232 FILLER_0_12_7
*233 FILLER_0_12_77
*234 FILLER_0_12_83
*235 FILLER_0_12_85
*236 FILLER_0_12_97
*237 FILLER_0_13_100
*238 FILLER_0_13_107
*239 FILLER_0_13_12
*240 FILLER_0_13_24
*241 FILLER_0_13_36
*242 FILLER_0_13_48
*243 FILLER_0_13_57
*244 FILLER_0_13_61
*245 FILLER_0_13_74
*246 FILLER_0_13_86
*247 FILLER_0_13_92
*248 FILLER_0_14_16
*249 FILLER_0_14_29
*250 FILLER_0_14_41
*251 FILLER_0_14_53
*252 FILLER_0_14_65
*253 FILLER_0_14_77
*254 FILLER_0_14_83
*255 FILLER_0_14_9
*256 FILLER_0_14_92
*257 FILLER_0_15_108
*258 FILLER_0_15_24
*259 FILLER_0_15_42
*260 FILLER_0_15_54
*261 FILLER_0_15_57
*262 FILLER_0_15_69
*263 FILLER_0_15_81
*264 FILLER_0_15_9
*265 FILLER_0_16_101
*266 FILLER_0_16_13
*267 FILLER_0_16_27
*268 FILLER_0_16_29
*269 FILLER_0_16_44
*270 FILLER_0_16_52
*271 FILLER_0_16_64
*272 FILLER_0_16_76
*273 FILLER_0_16_80
*274 FILLER_0_16_85
*275 FILLER_0_17_100
*276 FILLER_0_17_107
*277 FILLER_0_17_27
*278 FILLER_0_17_41
*279 FILLER_0_17_51
*280 FILLER_0_17_55
*281 FILLER_0_17_69
*282 FILLER_0_1_105
*283 FILLER_0_1_29
*284 FILLER_0_1_3
*285 FILLER_0_1_44
*286 FILLER_0_1_53
*287 FILLER_0_1_57
*288 FILLER_0_1_69
*289 FILLER_0_1_79
*290 FILLER_0_1_85
*291 FILLER_0_2_13
*292 FILLER_0_2_27
*293 FILLER_0_2_29
*294 FILLER_0_2_36
*295 FILLER_0_2_48
*296 FILLER_0_2_56
*297 FILLER_0_2_64
*298 FILLER_0_2_76
*299 FILLER_0_2_85
*300 FILLER_0_2_93
*301 FILLER_0_3_16
*302 FILLER_0_3_28
*303 FILLER_0_3_40
*304 FILLER_0_3_52
*305 FILLER_0_3_57
*306 FILLER_0_3_61
*307 FILLER_0_3_75
*308 FILLER_0_3_87
*309 FILLER_0_3_91
*310 FILLER_0_3_98
*311 FILLER_0_4_105
*312 FILLER_0_4_21
*313 FILLER_0_4_27
*314 FILLER_0_4_29
*315 FILLER_0_4_37
*316 FILLER_0_4_47
*317 FILLER_0_4_59
*318 FILLER_0_4_67
*319 FILLER_0_4_76
*320 FILLER_0_4_85
*321 FILLER_0_4_9
*322 FILLER_0_5_103
*323 FILLER_0_5_19
*324 FILLER_0_5_31
*325 FILLER_0_5_48
*326 FILLER_0_5_57
*327 FILLER_0_5_69
*328 FILLER_0_5_81
*329 FILLER_0_5_9
*330 FILLER_0_5_93
*331 FILLER_0_6_105
*332 FILLER_0_6_24
*333 FILLER_0_6_29
*334 FILLER_0_6_3
*335 FILLER_0_6_38
*336 FILLER_0_6_50
*337 FILLER_0_6_62
*338 FILLER_0_6_74
*339 FILLER_0_6_82
*340 FILLER_0_6_85
*341 FILLER_0_6_97
*342 FILLER_0_7_105
*343 FILLER_0_7_21
*344 FILLER_0_7_33
*345 FILLER_0_7_45
*346 FILLER_0_7_49
*347 FILLER_0_7_63
*348 FILLER_0_7_75
*349 FILLER_0_7_87
*350 FILLER_0_7_9
*351 FILLER_0_7_99
*352 FILLER_0_8_106
*353 FILLER_0_8_15
*354 FILLER_0_8_27
*355 FILLER_0_8_29
*356 FILLER_0_8_3
*357 FILLER_0_8_41
*358 FILLER_0_8_49
*359 FILLER_0_8_64
*360 FILLER_0_8_76
*361 FILLER_0_8_98
*362 FILLER_0_9_100
*363 FILLER_0_9_18
*364 FILLER_0_9_30
*365 FILLER_0_9_42
*366 FILLER_0_9_54
*367 FILLER_0_9_57
*368 FILLER_0_9_6
*369 FILLER_0_9_69
*370 FILLER_0_9_81
*371 PHY_0
*372 PHY_1
*373 PHY_10
*374 PHY_11
*375 PHY_12
*376 PHY_13
*377 PHY_14
*378 PHY_15
*379 PHY_16
*380 PHY_17
*381 PHY_18
*382 PHY_19
*383 PHY_2
*384 PHY_20
*385 PHY_21
*386 PHY_22
*387 PHY_23
*388 PHY_24
*389 PHY_25
*390 PHY_26
*391 PHY_27
*392 PHY_28
*393 PHY_29
*394 PHY_3
*395 PHY_30
*396 PHY_31
*397 PHY_32
*398 PHY_33
*399 PHY_34
*400 PHY_35
*401 PHY_4
*402 PHY_5
*403 PHY_6
*404 PHY_7
*405 PHY_8
*406 PHY_9
*407 TAP_36
*408 TAP_37
*409 TAP_38
*410 TAP_39
*411 TAP_40
*412 TAP_41
*413 TAP_42
*414 TAP_43
*415 TAP_44
*416 TAP_45
*417 TAP_46
*418 TAP_47
*419 TAP_48
*420 TAP_49
*421 TAP_50
*422 TAP_51
*423 TAP_52
*424 TAP_53
*425 TAP_54
*426 TAP_55
*427 TAP_56
*428 TAP_57
*429 TAP_58
*430 TAP_59
*431 TAP_60
*432 TAP_61
*433 TAP_62
*434 TAP_63
*435 TAP_64
*436 TAP_65
*437 _32_
*438 _33_
*439 _34_
*440 _35_
*441 _36_
*442 _37_
*443 _38_
*444 _39_
*445 _40_
*446 _41_
*447 _42_
*448 _43_
*449 _44_
*450 _45_
*451 _46_
*452 _47_
*453 _48_
*454 _49_
*455 _50_
*456 _51_
*457 _52_
*458 _53_
*459 _54_
*460 _55_
*461 _56_
*462 _57_
*463 _58_
*464 _59_
*465 _60_
*466 _61_
*467 _62_
*468 _63_
*469 _64_
*470 _65_
*471 _66_
*472 _67_
*473 _68_
*474 _69_
*475 _70_
*476 _71_
*477 _72_
*478 _73_
*479 _74_
*480 _75_
*481 _76_
*482 _77_
*483 _78_
*484 _79_
*485 _80_
*486 _81_
*487 _82_
*488 _83_
*489 _84_
*490 _85_
*491 _86_
*492 _87_
*493 _88_
*494 _89_
*495 _90_
*496 _91_
*497 _92_
*498 _93_
*499 _94_
*500 _95_
*501 input1
*502 input10
*503 input11
*504 input12
*505 input13
*506 input14
*507 input15
*508 input16
*509 input17
*510 input18
*511 input19
*512 input2
*513 input20
*514 input21
*515 input22
*516 input23
*517 input24
*518 input25
*519 input26
*520 input27
*521 input28
*522 input29
*523 input3
*524 input30
*525 input31
*526 input32
*527 input33
*528 input34
*529 input35
*530 input36
*531 input37
*532 input38
*533 input39
*534 input4
*535 input40
*536 input41
*537 input42
*538 input43
*539 input44
*540 input45
*541 input46
*542 input47
*543 input48
*544 input5
*545 input6
*546 input7
*547 input8
*548 input9
*549 output49
*550 output50
*551 output51
*552 output52
*553 output53
*554 output54
*555 output55
*556 output56
*557 output57
*558 output58
*559 output59
*560 output60
*561 output61
*562 output62
*563 output63
*564 output64
*565 output65
*566 output66
*567 output67
*568 output68
*569 output69
*570 output70
*571 output71
*572 output72
*573 output73
*574 output74
*575 output75
*576 output76
*577 output77
*578 output78
*579 output79
*580 output80

*PORTS
A[0] I
A[10] I
A[11] I
A[12] I
A[13] I
A[14] I
A[15] I
A[1] I
A[2] I
A[3] I
A[4] I
A[5] I
A[6] I
A[7] I
A[8] I
A[9] I
B[0] I
B[10] I
B[11] I
B[12] I
B[13] I
B[14] I
B[15] I
B[1] I
B[2] I
B[3] I
B[4] I
B[5] I
B[6] I
B[7] I
B[8] I
B[9] I
C[0] I
C[10] I
C[11] I
C[12] I
C[13] I
C[14] I
C[15] I
C[1] I
C[2] I
C[3] I
C[4] I
C[5] I
C[6] I
C[7] I
C[8] I
C[9] I
Carry[0] O
Carry[10] O
Carry[11] O
Carry[12] O
Carry[13] O
Carry[14] O
Carry[15] O
Carry[1] O
Carry[2] O
Carry[3] O
Carry[4] O
Carry[5] O
Carry[6] O
Carry[7] O
Carry[8] O
Carry[9] O
Sum[0] O
Sum[10] O
Sum[11] O
Sum[12] O
Sum[13] O
Sum[14] O
Sum[15] O
Sum[1] O
Sum[2] O
Sum[3] O
Sum[4] O
Sum[5] O
Sum[6] O
Sum[7] O
Sum[8] O
Sum[9] O

*D_NET *1 0.00214281
*CONN
*P A[0] I
*I *501:A I *D sky130_fd_sc_hd__buf_1
*CAP
1 A[0] 0.000550445
2 *501:A 0
3 *1:11 0.000550445
4 *1:11 Sum[12] 6.97953e-05
5 *1:11 *495:B1 5.3304e-05
6 *1:11 *7:17 0.00030021
7 *1:11 *38:15 0
8 *1:11 *60:8 0.000520201
9 *1:11 *128:39 1.57571e-05
10 *1:11 *148:18 8.26569e-05
*RES
1 A[0] *1:11 30.4114 
2 *1:11 *501:A 23 
*END

*D_NET *2 0.00155512
*CONN
*P A[10] I
*I *512:A I *D sky130_fd_sc_hd__buf_1
*CAP
1 A[10] 0.000726477
2 *512:A 0
3 *2:15 0.000726477
4 *2:15 Carry[11] 0
5 *2:15 *8:11 0
6 *2:15 *126:8 2.14404e-05
7 *2:15 *129:12 7.45471e-05
8 *2:15 *165:24 6.17437e-06
*RES
1 A[10] *2:15 30.4321 
2 *2:15 *512:A 23 
*END

*D_NET *3 0.000854427
*CONN
*P A[11] I
*I *523:A I *D sky130_fd_sc_hd__buf_1
*CAP
1 A[11] 0.000387476
2 *523:A 0.000387476
3 *523:A Sum[9] 0
4 *523:A *542:A 4.11437e-05
5 *523:A *23:13 3.83308e-05
*RES
1 A[11] *523:A 48.6355 
*END

*D_NET *4 0.00140816
*CONN
*P A[12] I
*I *534:A I *D sky130_fd_sc_hd__dlymetal6s2s_1
*CAP
1 A[12] 0.000576189
2 *534:A 0
3 *4:21 0.000576189
4 *4:21 Sum[6] 0
5 *4:21 *13:13 0
6 *4:21 *39:15 0.000159284
7 *4:21 *65:10 0
8 *4:21 *148:6 9.64943e-05
*RES
1 A[12] *4:21 30.0386 
2 *4:21 *534:A 23 
*END

*D_NET *5 0.00197981
*CONN
*P A[13] I
*I *544:A I *D sky130_fd_sc_hd__buf_1
*CAP
1 A[13] 0.000729093
2 *544:A 0
3 *5:11 0.000729093
4 *5:11 Sum[8] 0.0001005
5 *5:11 *34:15 0
6 *5:11 *41:15 4.31613e-05
7 *5:11 *83:8 0.000164392
8 *5:11 *168:20 6.0217e-05
9 *5:11 *177:8 3.3994e-05
10 *5:11 *187:14 0.000119361
*RES
1 A[13] *5:11 32.7793 
2 *5:11 *544:A 23 
*END

*D_NET *6 0.00272198
*CONN
*P A[14] I
*I *545:A I *D sky130_fd_sc_hd__buf_1
*CAP
1 A[14] 0.000868042
2 *545:A 0
3 *6:19 0.000868042
4 *6:19 Sum[0] 9.93916e-05
5 *6:19 *13:13 3.32054e-05
6 *6:19 *21:11 0.000100069
7 *6:19 *29:19 9.8876e-05
8 *6:19 *30:17 5.94747e-05
9 *6:19 *65:10 0.000166854
10 *6:19 *119:10 8.4047e-05
11 *6:19 *155:10 0.000331541
12 *6:19 *170:12 1.24376e-05
*RES
1 A[14] *6:19 37.5108 
2 *6:19 *545:A 23 
*END

*D_NET *7 0.00463248
*CONN
*P A[15] I
*I *546:A I *D sky130_fd_sc_hd__dlymetal6s2s_1
*CAP
1 A[15] 0.00155508
2 *546:A 0
3 *7:17 0.00155508
4 *7:17 Carry[12] 0.00039075
5 *7:17 *38:15 0
6 *7:17 *52:8 0
7 *7:17 *86:10 4.90994e-05
8 *7:17 *124:8 7.27085e-05
9 *7:17 *124:10 1.62015e-05
10 *7:17 *148:18 0
11 *7:17 *162:16 0.000166522
12 *7:17 *179:16 0.000143834
13 *7:17 *181:8 0.000372854
14 *7:17 *181:12 1.01436e-05
15 *1:11 *7:17 0.00030021
*RES
1 A[15] *7:17 47.4414 
2 *7:17 *546:A 23 
*END

*D_NET *8 0.0011529
*CONN
*P A[1] I
*I *547:A I *D sky130_fd_sc_hd__buf_1
*CAP
1 A[1] 0.000566155
2 *547:A 0
3 *8:11 0.000566155
4 *8:11 *32:13 0
5 *8:11 *126:8 2.05916e-05
6 *2:15 *8:11 0
*RES
1 A[1] *8:11 27.2836 
2 *8:11 *547:A 23 
*END

*D_NET *9 0.000553336
*CONN
*P A[2] I
*I *548:A I *D sky130_fd_sc_hd__dlymetal6s2s_1
*CAP
1 A[2] 0.000198449
2 *548:A 0.000198449
3 *548:A Carry[13] 0
4 *548:A Sum[7] 3.49463e-05
5 *548:A *48:11 3.49463e-05
6 *548:A *53:6 8.65442e-05
*RES
1 A[2] *548:A 49.1767 
*END

*D_NET *10 0.000970769
*CONN
*P A[3] I
*I *502:A I *D sky130_fd_sc_hd__buf_1
*CAP
1 A[3] 0.000415351
2 *502:A 0.000415351
3 *502:A Carry[8] 0
4 *502:A *527:A 0
5 *502:A *148:14 0.000140067
6 *502:A *171:16 0
*RES
1 A[3] *502:A 47.4664 
*END

*D_NET *11 0.000598475
*CONN
*P A[4] I
*I *503:A I *D sky130_fd_sc_hd__buf_1
*CAP
1 A[4] 0.000265394
2 *503:A 0.000265394
3 *503:A Carry[4] 3.38429e-05
4 *503:A *36:13 3.38429e-05
5 *503:A *169:10 0
*RES
1 A[4] *503:A 48.1354 
*END

*D_NET *12 0.00151763
*CONN
*P A[5] I
*I *504:A I *D sky130_fd_sc_hd__buf_1
*CAP
1 A[5] 0.0006304
2 *504:A 0
3 *12:13 0.0006304
4 *12:13 Carry[10] 0
5 *12:13 *579:A 0.000191417
6 *12:13 *25:11 0
7 *12:13 *45:11 0
8 *12:13 *50:8 5.40337e-05
9 *12:13 *160:10 1.13812e-05
*RES
1 A[5] *12:13 29.3343 
2 *12:13 *504:A 23 
*END

*D_NET *13 0.00173115
*CONN
*P A[6] I
*I *505:A I *D sky130_fd_sc_hd__buf_1
*CAP
1 A[6] 0.000492918
2 *505:A 0
3 *13:13 0.000492918
4 *13:13 Sum[0] 9.8882e-05
5 *13:13 *29:19 0.000613231
6 *13:13 *65:10 0
7 *4:21 *13:13 0
8 *6:19 *13:13 3.32054e-05
*RES
1 A[6] *13:13 32.8471 
2 *13:13 *505:A 23 
*END

*D_NET *14 0.00077716
*CONN
*P A[7] I
*I *506:A I *D sky130_fd_sc_hd__buf_1
*CAP
1 A[7] 0.000348308
2 *506:A 0
3 *14:15 0.000348308
4 *14:15 *21:11 0
5 *14:15 *23:13 4.1708e-05
6 *14:15 *46:15 3.88354e-05
7 *14:15 *155:10 0
*RES
1 A[7] *14:15 28.044 
2 *14:15 *506:A 23 
*END

*D_NET *15 0.0036188
*CONN
*P A[8] I
*I *507:A I *D sky130_fd_sc_hd__buf_1
*CAP
1 A[8] 0.00108546
2 *507:A 0
3 *15:23 0.000134735
4 *15:17 0.0012202
5 *15:17 Carry[2] 0
6 *15:17 Sum[2] 1.36853e-05
7 *15:17 *488:A1 9.72406e-05
8 *15:17 *535:A 0.000185368
9 *15:17 *22:17 0.000217259
10 *15:17 *56:8 2.46906e-05
11 *15:17 *74:8 0.000146984
12 *15:17 *166:14 0.000144501
13 *15:17 *186:26 0.000100311
14 *15:23 *28:13 0.000248358
*RES
1 A[8] *15:17 38.6764 
2 *15:17 *15:23 33.3143 
3 *15:23 *507:A 23 
*END

*D_NET *16 0.00407841
*CONN
*P A[9] I
*I *508:A I *D sky130_fd_sc_hd__buf_1
*CAP
1 A[9] 0.00150847
2 *508:A 0
3 *16:15 0.00150847
4 *16:15 Carry[2] 0
5 *16:15 *487:B1 0.00014398
6 *16:15 *57:8 0.000323986
7 *16:15 *98:10 0.000184125
8 *16:15 *122:8 0.000366693
9 *16:15 *167:18 2.19845e-05
10 *16:15 *185:8 2.07026e-05
*RES
1 A[9] *16:15 47.6457 
2 *16:15 *508:A 23 
*END

*D_NET *17 0.000578668
*CONN
*P B[0] I
*I *509:A I *D sky130_fd_sc_hd__dlymetal6s2s_1
*CAP
1 B[0] 0.000213397
2 *509:A 0.000213397
3 *509:A Sum[15] 6.99251e-05
4 *509:A *513:A 5.86011e-05
5 *509:A *127:24 2.33476e-05
*RES
1 B[0] *509:A 47.0789 
*END

*D_NET *18 0.00207905
*CONN
*P B[10] I
*I *510:A I *D sky130_fd_sc_hd__buf_1
*CAP
1 B[10] 0.000632698
2 *510:A 0
3 *18:11 0.000632698
4 *18:11 Carry[12] 7.48695e-05
5 *18:11 Sum[12] 0
6 *18:11 *495:A2 0
7 *18:11 *31:11 0.000389522
8 *18:11 *48:11 7.2485e-05
9 *18:11 *128:39 0
10 *18:11 *159:10 0
11 *18:11 *162:8 0.000276775
*RES
1 B[10] *18:11 34.2911 
2 *18:11 *510:A 23 
*END

*D_NET *19 0.00260379
*CONN
*P B[11] I
*I *511:A I *D sky130_fd_sc_hd__buf_1
*CAP
1 B[11] 0.000815834
2 *511:A 0
3 *19:11 0.000815834
4 *19:11 Carry[10] 0.000231492
5 *19:11 Sum[5] 0
6 *19:11 Sum[8] 0.000222019
7 *19:11 *25:11 0.000310703
8 *19:11 *79:12 0.000204403
9 *19:11 *99:8 3.50862e-06
*RES
1 B[11] *19:11 35.1324 
2 *19:11 *511:A 23 
*END

*D_NET *20 0.00119491
*CONN
*P B[12] I
*I *513:A I *D sky130_fd_sc_hd__dlymetal6s2s_1
*CAP
1 B[12] 0.000429787
2 *513:A 0.000429787
3 *513:A *27:17 5.78793e-05
4 *513:A *35:13 4.11437e-05
5 *513:A *127:12 0.000177715
6 *509:A *513:A 5.86011e-05
*RES
1 B[12] *513:A 49.8991 
*END

*D_NET *21 0.00251817
*CONN
*P B[13] I
*I *514:A I *D sky130_fd_sc_hd__buf_1
*CAP
1 B[13] 0.00104089
2 *514:A 0
3 *21:11 0.00104089
4 *21:11 *29:19 0
5 *21:11 *30:17 0.000245221
6 *21:11 *44:9 0
7 *21:11 *46:15 6.79492e-05
8 *21:11 *170:12 2.31591e-05
9 *6:19 *21:11 0.000100069
10 *14:15 *21:11 0
*RES
1 B[13] *21:11 37.0814 
2 *21:11 *514:A 23 
*END

*D_NET *22 0.00321769
*CONN
*P B[14] I
*I *515:A I *D sky130_fd_sc_hd__dlymetal6s2s_1
*CAP
1 B[14] 0.000763188
2 *515:A 0
3 *22:17 0.000763188
4 *22:17 *488:A1 0.000232289
5 *22:17 *488:A2 0.000271906
6 *22:17 *535:A 0.000102092
7 *22:17 *27:17 4.68773e-05
8 *22:17 *28:13 6.01532e-05
9 *22:17 *32:13 3.22051e-05
10 *22:17 *129:12 1.11037e-05
11 *22:17 *140:8 0.000533217
12 *22:17 *166:14 2.19764e-05
13 *22:17 *175:10 0.000140296
14 *22:17 *186:26 2.19403e-05
15 *15:17 *22:17 0.000217259
*RES
1 B[14] *22:17 38.5582 
2 *22:17 *515:A 23 
*END

*D_NET *23 0.000697502
*CONN
*P B[15] I
*I *516:A I *D sky130_fd_sc_hd__buf_1
*CAP
1 B[15] 0.000308732
2 *516:A 0
3 *23:13 0.000308732
4 *523:A *23:13 3.83308e-05
5 *14:15 *23:13 4.1708e-05
*RES
1 B[15] *23:13 27.5469 
2 *23:13 *516:A 23 
*END

*D_NET *24 0.000746865
*CONN
*P B[1] I
*I *517:A I *D sky130_fd_sc_hd__buf_1
*CAP
1 B[1] 0.000289004
2 *517:A 0.000289004
3 *517:A Carry[14] 3.38429e-05
4 *517:A *36:13 3.38429e-05
5 *517:A *144:8 0.000101171
*RES
1 B[1] *517:A 49.5439 
*END

*D_NET *25 0.00330274
*CONN
*P B[2] I
*I *518:A I *D sky130_fd_sc_hd__buf_1
*CAP
1 B[2] 0.0011296
2 *518:A 0
3 *25:11 0.0011296
4 *25:11 Carry[10] 0.000732827
5 *12:13 *25:11 0
6 *19:11 *25:11 0.000310703
*RES
1 B[2] *25:11 38.9114 
2 *25:11 *518:A 23 
*END

*D_NET *26 0.00108156
*CONN
*P B[3] I
*I *519:A I *D sky130_fd_sc_hd__buf_1
*CAP
1 B[3] 0.000468532
2 *519:A 0.000468532
3 *519:A Sum[6] 0
4 *519:A *42:15 0
5 *519:A *148:6 0.000144501
*RES
1 B[3] *519:A 48.2743 
*END

*D_NET *27 0.00196806
*CONN
*P B[4] I
*I *520:A I *D sky130_fd_sc_hd__buf_1
*CAP
1 B[4] 0.000843973
2 *520:A 0
3 *27:17 0.000843973
4 *27:17 *35:13 0.000114891
5 *27:17 *127:12 5.56279e-05
6 *27:17 *186:14 4.84129e-06
7 *513:A *27:17 5.78793e-05
8 *22:17 *27:17 4.68773e-05
*RES
1 B[4] *27:17 35.3415 
2 *27:17 *520:A 23 
*END

*D_NET *28 0.00458375
*CONN
*P B[5] I
*I *521:A I *D sky130_fd_sc_hd__buf_1
*CAP
1 B[5] 0.00156361
2 *521:A 0
3 *28:13 0.00156361
4 *28:13 Carry[1] 4.97528e-05
5 *28:13 Carry[9] 0.000246553
6 *28:13 *459:A 1.50445e-05
7 *28:13 *491:B1 0.000162846
8 *28:13 *40:13 0
9 *28:13 *121:16 0.00013449
10 *28:13 *125:25 4.21893e-05
11 *28:13 *137:28 9.64943e-05
12 *28:13 *167:6 0.000400658
13 *15:23 *28:13 0.000248358
14 *22:17 *28:13 6.01532e-05
*RES
1 B[5] *28:13 39.1958 
2 *28:13 *521:A 23 
*END

*D_NET *29 0.00307613
*CONN
*P B[6] I
*I *522:A I *D sky130_fd_sc_hd__buf_1
*CAP
1 B[6] 0.000914545
2 *522:A 0
3 *29:19 0.000914545
4 *29:19 *30:17 0.000132848
5 *29:19 *44:9 0.000225607
6 *29:19 *170:16 0.000102389
7 *29:19 *176:14 7.4094e-05
8 *6:19 *29:19 9.8876e-05
9 *13:13 *29:19 0.000613231
10 *21:11 *29:19 0
*RES
1 B[6] *29:19 36.6257 
2 *29:19 *522:A 23 
*END

*D_NET *30 0.00200613
*CONN
*P B[7] I
*I *524:A I *D sky130_fd_sc_hd__buf_1
*CAP
1 B[7] 0.00067369
2 *524:A 0
3 *30:17 0.00067369
4 *30:17 *484:A1 1.8788e-05
5 *30:17 *46:15 0.00010596
6 *30:17 *128:6 5.50049e-05
7 *30:17 *170:12 4.14538e-05
8 *6:19 *30:17 5.94747e-05
9 *21:11 *30:17 0.000245221
10 *29:19 *30:17 0.000132848
*RES
1 B[7] *30:17 34.8443 
2 *30:17 *524:A 23 
*END

*D_NET *31 0.00349419
*CONN
*P B[8] I
*I *525:A I *D sky130_fd_sc_hd__buf_1
*CAP
1 B[8] 0.00113845
2 *525:A 0
3 *31:11 0.00113845
4 *31:11 Carry[5] 0
5 *31:11 Sum[12] 0
6 *31:11 *463:A 5.3304e-05
7 *31:11 *463:B 2.32004e-05
8 *31:11 *469:B1 0
9 *31:11 *496:B1 0.000226306
10 *31:11 *552:A 9.67842e-05
11 *31:11 *86:10 9.75779e-05
12 *31:11 *128:20 0.00015683
13 *31:11 *128:24 3.44001e-05
14 *31:11 *163:10 0.000139357
15 *18:11 *31:11 0.000389522
*RES
1 B[8] *31:11 39.2979 
2 *31:11 *525:A 23 
*END

*D_NET *32 0.00193077
*CONN
*P B[9] I
*I *526:A I *D sky130_fd_sc_hd__buf_1
*CAP
1 B[9] 0.000695083
2 *526:A 0
3 *32:13 0.000695083
4 *32:13 Carry[1] 0
5 *32:13 *129:12 9.74801e-05
6 *32:13 *149:24 0.000133116
7 *32:13 *166:14 0.0002778
8 *8:11 *32:13 0
9 *22:17 *32:13 3.22051e-05
*RES
1 B[9] *32:13 31.24 
2 *32:13 *526:A 23 
*END

*D_NET *33 0.000987355
*CONN
*P C[0] I
*I *527:A I *D sky130_fd_sc_hd__buf_1
*CAP
1 C[0] 0.000490883
2 *527:A 0.000490883
3 *527:A Sum[13] 0
4 *527:A *115:14 0
5 *527:A *171:16 5.58975e-06
6 *502:A *527:A 0
*RES
1 C[0] *527:A 47.3214 
*END

*D_NET *34 0.00103466
*CONN
*P C[10] I
*I *528:A I *D sky130_fd_sc_hd__buf_1
*CAP
1 C[10] 0.000418168
2 *528:A 0
3 *34:15 0.000418168
4 *34:15 Carry[0] 3.69998e-05
5 *34:15 Sum[4] 0
6 *34:15 *41:15 0.000161328
7 *5:11 *34:15 0
*RES
1 C[10] *34:15 27.8393 
2 *34:15 *528:A 23 
*END

*D_NET *35 0.000804155
*CONN
*P C[11] I
*I *529:A I *D sky130_fd_sc_hd__buf_1
*CAP
1 C[11] 0.00032406
2 *529:A 0
3 *35:13 0.00032406
4 *513:A *35:13 4.11437e-05
5 *27:17 *35:13 0.000114891
*RES
1 C[11] *35:13 28.0233 
2 *35:13 *529:A 23 
*END

*D_NET *36 0.000626291
*CONN
*P C[12] I
*I *530:A I *D sky130_fd_sc_hd__buf_1
*CAP
1 C[12] 0.000279303
2 *530:A 0
3 *36:13 0.000279303
4 *36:13 *144:8 0
5 *503:A *36:13 3.38429e-05
6 *517:A *36:13 3.38429e-05
*RES
1 C[12] *36:13 27.5853 
2 *36:13 *530:A 23 
*END

*D_NET *37 0.00315521
*CONN
*P C[13] I
*I *531:A I *D sky130_fd_sc_hd__buf_1
*CAP
1 C[13] 0.00154393
2 *531:A 0
3 *37:11 0.00154393
4 *37:11 Sum[4] 0
5 *37:11 *59:10 6.73529e-05
*RES
1 C[13] *37:11 48.0807 
2 *37:11 *531:A 23 
*END

*D_NET *38 0.00287495
*CONN
*P C[14] I
*I *532:A I *D sky130_fd_sc_hd__buf_1
*CAP
1 C[14] 0.000627767
2 *532:A 0
3 *38:15 0.000627767
4 *38:15 Sum[13] 0
5 *38:15 *560:A 0.000203857
6 *38:15 *569:A 0.000273008
7 *38:15 *48:11 3.70094e-05
8 *38:15 *52:8 0.00041061
9 *38:15 *115:6 6.24251e-05
10 *38:15 *157:10 0.000626603
11 *38:15 *171:16 5.90675e-06
12 *1:11 *38:15 0
13 *7:17 *38:15 0
*RES
1 C[14] *38:15 33.56 
2 *38:15 *532:A 23 
*END

*D_NET *39 0.00213085
*CONN
*P C[15] I
*I *533:A I *D sky130_fd_sc_hd__buf_1
*CAP
1 C[15] 0.000767431
2 *533:A 0
3 *39:15 0.000767431
4 *39:15 Sum[6] 0
5 *39:15 *119:20 3.6228e-05
6 *39:15 *157:20 0.00026682
7 *39:15 *172:12 0.000133658
8 *4:21 *39:15 0.000159284
*RES
1 C[15] *39:15 31.3436 
2 *39:15 *533:A 23 
*END

*D_NET *40 0.00203456
*CONN
*P C[1] I
*I *535:A I *D sky130_fd_sc_hd__buf_1
*CAP
1 C[1] 0.000516493
2 *535:A 4.9753e-05
3 *40:13 0.000566246
4 *40:13 Carry[1] 0
5 *40:13 Carry[6] 0
6 *40:13 Carry[9] 0.000354228
7 *40:13 Sum[3] 0
8 *40:13 *61:10 0.000187612
9 *40:13 *149:14 7.27666e-05
10 *15:17 *535:A 0.000185368
11 *22:17 *535:A 0.000102092
12 *28:13 *40:13 0
*RES
1 C[1] *40:13 43.2364 
2 *40:13 *535:A 40.0507 
*END

*D_NET *41 0.00173656
*CONN
*P C[2] I
*I *536:A I *D sky130_fd_sc_hd__buf_1
*CAP
1 C[2] 0.000689551
2 *536:A 0
3 *41:15 0.000689551
4 *41:15 Sum[4] 0
5 *41:15 *549:A 0.000152968
6 *5:11 *41:15 4.31613e-05
7 *34:15 *41:15 0.000161328
*RES
1 C[2] *41:15 34.4922 
2 *41:15 *536:A 23 
*END

*D_NET *42 0.000971056
*CONN
*P C[3] I
*I *537:A I *D sky130_fd_sc_hd__buf_1
*CAP
1 C[3] 0.000485528
2 *537:A 0
3 *42:15 0.000485528
4 *42:15 Sum[1] 0
5 *519:A *42:15 0
*RES
1 C[3] *42:15 27.1179 
2 *42:15 *537:A 23 
*END

*D_NET *43 0.00183838
*CONN
*P C[4] I
*I *538:A I *D sky130_fd_sc_hd__buf_1
*CAP
1 C[4] 0.000611814
2 *538:A 0
3 *43:15 0.000611814
4 *43:15 Carry[7] 3.38429e-05
5 *43:15 Sum[7] 3.25681e-05
6 *43:15 *493:A2 5.3304e-05
7 *43:15 *493:B1 0.000318763
8 *43:15 *562:A 6.41457e-05
9 *43:15 *62:12 2.95526e-05
10 *43:15 *162:8 5.6873e-05
11 *43:15 *173:16 2.57052e-05
*RES
1 C[4] *43:15 32.7138 
2 *43:15 *538:A 23 
*END

*D_NET *44 0.0026003
*CONN
*P C[5] I
*I *539:A I *D sky130_fd_sc_hd__buf_1
*CAP
1 C[5] 0.00112783
2 *539:A 0
3 *44:9 0.00112783
4 *44:9 *46:15 0
5 *44:9 *65:10 2.31687e-05
6 *44:9 *176:14 9.58714e-05
7 *21:11 *44:9 0
8 *29:19 *44:9 0.000225607
*RES
1 C[5] *44:9 38.5314 
2 *44:9 *539:A 23 
*END

*D_NET *45 0.0011322
*CONN
*P C[6] I
*I *540:A I *D sky130_fd_sc_hd__buf_1
*CAP
1 C[6] 0.0005661
2 *540:A 0
3 *45:11 0.0005661
4 *45:11 Carry[15] 0
5 *12:13 *45:11 0
*RES
1 C[6] *45:11 27.2836 
2 *45:11 *540:A 23 
*END

*D_NET *46 0.000896465
*CONN
*P C[7] I
*I *541:A I *D sky130_fd_sc_hd__buf_1
*CAP
1 C[7] 0.00034186
2 *541:A 0
3 *46:15 0.00034186
4 *14:15 *46:15 3.88354e-05
5 *21:11 *46:15 6.79492e-05
6 *30:17 *46:15 0.00010596
7 *44:9 *46:15 0
*RES
1 C[7] *46:15 28.044 
2 *46:15 *541:A 23 
*END

*D_NET *47 0.000550311
*CONN
*P C[8] I
*I *542:A I *D sky130_fd_sc_hd__buf_1
*CAP
1 C[8] 0.000234012
2 *542:A 0.000234012
3 *542:A Sum[9] 4.11437e-05
4 *523:A *542:A 4.11437e-05
*RES
1 C[8] *542:A 49.2833 
*END

*D_NET *48 0.00273235
*CONN
*P C[9] I
*I *543:A I *D sky130_fd_sc_hd__buf_1
*CAP
1 C[9] 0.00120326
2 *543:A 0
3 *48:11 0.00120326
4 *48:11 Carry[12] 0
5 *48:11 *52:8 3.23089e-05
6 *48:11 *180:10 0.000149083
7 *548:A *48:11 3.49463e-05
8 *18:11 *48:11 7.2485e-05
9 *38:15 *48:11 3.70094e-05
*RES
1 C[9] *48:11 27.7287 
2 *48:11 *543:A 23 
*END

*D_NET *49 0.000878257
*CONN
*P Carry[0] O
*I *549:X O *D sky130_fd_sc_hd__clkbuf_4
*CAP
1 Carry[0] 0.000404995
2 *549:X 0.000404995
3 Carry[0] Carry[4] 3.1268e-05
4 Carry[0] *159:10 0
5 *34:15 Carry[0] 3.69998e-05
*RES
1 *549:X Carry[0] 48.5734 
*END

*D_NET *50 0.00239986
*CONN
*P Carry[10] O
*I *550:X O *D sky130_fd_sc_hd__clkbuf_4
*CAP
1 Carry[10] 0.000288749
2 *550:X 0.000346022
3 *50:8 0.00063477
4 Carry[10] Sum[5] 0
5 *50:8 *579:A 9.29049e-05
6 *50:8 *188:16 1.90678e-05
7 *12:13 Carry[10] 0
8 *12:13 *50:8 5.40337e-05
9 *19:11 Carry[10] 0.000231492
10 *25:11 Carry[10] 0.000732827
*RES
1 *550:X *50:8 42.9093 
2 *50:8 Carry[10] 10.8129 
*END

*D_NET *51 0.00147425
*CONN
*P Carry[11] O
*I *551:X O *D sky130_fd_sc_hd__clkbuf_4
*CAP
1 Carry[11] 0.000522004
2 *551:X 0.00013697
3 *51:8 0.000658974
4 Carry[11] Carry[15] 0
5 *51:8 *165:24 0.0001563
6 *2:15 Carry[11] 0
*RES
1 *551:X *51:8 41.0036 
2 *51:8 Carry[11] 11.165 
*END

*D_NET *52 0.00260168
*CONN
*P Carry[12] O
*I *552:X O *D sky130_fd_sc_hd__clkbuf_4
*CAP
1 Carry[12] 0.000505515
2 *552:X 0.000259645
3 *52:8 0.00076516
4 *52:8 *179:16 0.000162816
5 *7:17 Carry[12] 0.00039075
6 *7:17 *52:8 0
7 *18:11 Carry[12] 7.48695e-05
8 *38:15 *52:8 0.00041061
9 *48:11 Carry[12] 0
10 *48:11 *52:8 3.23089e-05
*RES
1 *552:X *52:8 45.3639 
2 *52:8 Carry[12] 10.3893 
*END

*D_NET *53 0.00422188
*CONN
*P Carry[13] O
*I *553:X O *D sky130_fd_sc_hd__clkbuf_4
*CAP
1 Carry[13] 0.000681309
2 *553:X 0.00100512
3 *53:6 0.00168643
4 Carry[13] Carry[5] 0
5 *53:6 *162:16 2.3191e-05
6 *53:6 *194:8 0.00073928
7 *548:A Carry[13] 0
8 *548:A *53:6 8.65442e-05
*RES
1 *553:X *53:6 39.82 
2 *53:6 Carry[13] 30.3907 
*END

*D_NET *54 0.000544836
*CONN
*P Carry[14] O
*I *554:X O *D sky130_fd_sc_hd__clkbuf_4
*CAP
1 Carry[14] 0.000239863
2 *554:X 0.000239863
3 Carry[14] Carry[7] 3.1268e-05
4 Carry[14] *144:8 0
5 *517:A Carry[14] 3.38429e-05
*RES
1 *554:X Carry[14] 49.5289 
*END

*D_NET *55 0.00108904
*CONN
*P Carry[15] O
*I *555:X O *D sky130_fd_sc_hd__clkbuf_4
*CAP
1 Carry[15] 0.000544518
2 *555:X 0.000544518
3 Carry[11] Carry[15] 0
4 *45:11 Carry[15] 0
*RES
1 *555:X Carry[15] 49.9314 
*END

*D_NET *56 0.00186315
*CONN
*P Carry[1] O
*I *556:X O *D sky130_fd_sc_hd__clkbuf_4
*CAP
1 Carry[1] 0.000483427
2 *556:X 0.000250433
3 *56:8 0.000733861
4 *56:8 *166:14 0.00032099
5 *15:17 *56:8 2.46906e-05
6 *28:13 Carry[1] 4.97528e-05
7 *32:13 Carry[1] 0
8 *40:13 Carry[1] 0
*RES
1 *556:X *56:8 41.9564 
2 *56:8 Carry[1] 10.8129 
*END

*D_NET *57 0.00202922
*CONN
*P Carry[2] O
*I *557:X O *D sky130_fd_sc_hd__clkbuf_4
*CAP
1 Carry[2] 0.000680596
2 *557:X 0.000172023
3 *57:8 0.000852619
4 *15:17 Carry[2] 0
5 *16:15 Carry[2] 0
6 *16:15 *57:8 0.000323986
*RES
1 *557:X *57:8 41.48 
2 *57:8 Carry[2] 13.63 
*END

*D_NET *58 0.00108369
*CONN
*P Carry[3] O
*I *558:X O *D sky130_fd_sc_hd__clkbuf_4
*CAP
1 Carry[3] 0.000541844
2 *558:X 0.000541844
3 Carry[3] Sum[10] 0
4 Carry[3] Sum[5] 0
*RES
1 *558:X Carry[3] 49.165 
*END

*D_NET *59 0.000861346
*CONN
*P Carry[4] O
*I *559:X O *D sky130_fd_sc_hd__clkbuf_4
*CAP
1 Carry[4] 6.11455e-05
2 *559:X 0.000303296
3 *59:10 0.000364441
4 *59:10 *169:10 0
5 Carry[0] Carry[4] 3.1268e-05
6 *503:A Carry[4] 3.38429e-05
7 *37:11 *59:10 6.73529e-05
*RES
1 *559:X *59:10 43.4375 
2 *59:10 Carry[4] 8.32853 
*END

*D_NET *60 0.00304757
*CONN
*P Carry[5] O
*I *560:X O *D sky130_fd_sc_hd__clkbuf_4
*CAP
1 Carry[5] 0.000429687
2 *560:X 0.000492202
3 *60:8 0.000921889
4 *60:8 *115:6 0.000606248
5 *60:8 *179:16 7.73389e-05
6 Carry[13] Carry[5] 0
7 *1:11 *60:8 0.000520201
8 *31:11 Carry[5] 0
*RES
1 *560:X *60:8 35.5529 
2 *60:8 Carry[5] 24.4043 
*END

*D_NET *61 0.00317014
*CONN
*P Carry[6] O
*I *561:X O *D sky130_fd_sc_hd__clkbuf_4
*CAP
1 Carry[6] 0.000713804
2 *561:X 0.000299613
3 *61:10 0.00101342
4 Carry[6] Carry[9] 0.000212885
5 Carry[6] Sum[3] 0.000514565
6 *61:10 Carry[9] 0.000106499
7 *61:10 Sum[3] 3.66298e-05
8 *61:10 *149:8 8.51186e-05
9 *40:13 Carry[6] 0
10 *40:13 *61:10 0.000187612
*RES
1 *561:X *61:10 44.9289 
2 *61:10 Carry[6] 16.7396 
*END

*D_NET *62 0.000654555
*CONN
*P Carry[7] O
*I *562:X O *D sky130_fd_sc_hd__clkbuf_4
*CAP
1 Carry[7] 6.11455e-05
2 *562:X 0.0002188
3 *62:12 0.000279946
4 *62:12 *162:8 0
5 Carry[14] Carry[7] 3.1268e-05
6 *43:15 Carry[7] 3.38429e-05
7 *43:15 *62:12 2.95526e-05
*RES
1 *562:X *62:12 49.9046 
2 *62:12 Carry[7] 0.328533 
*END

*D_NET *63 0.000828651
*CONN
*P Carry[8] O
*I *563:X O *D sky130_fd_sc_hd__clkbuf_4
*CAP
1 Carry[8] 0.000414326
2 *563:X 0.000414326
3 Carry[8] Sum[14] 0
4 Carry[8] *148:14 0
5 *502:A Carry[8] 0
*RES
1 *563:X Carry[8] 46.6171 
*END

*D_NET *64 0.00451732
*CONN
*P Carry[9] O
*I *564:X O *D sky130_fd_sc_hd__clkbuf_4
*CAP
1 Carry[9] 0.000970312
2 *564:X 0.000536138
3 *64:12 0.00150645
4 *64:12 *455:A 5.56279e-05
5 *64:12 *455:B 1.34914e-05
6 *64:12 *491:B1 7.53303e-06
7 *64:12 *564:A 5.79559e-05
8 *64:12 *143:6 3.74833e-05
9 *64:12 *167:6 0.000185528
10 *64:12 *172:14 0.000113398
11 *64:12 *185:16 0.000113235
12 Carry[6] Carry[9] 0.000212885
13 *28:13 Carry[9] 0.000246553
14 *40:13 Carry[9] 0.000354228
15 *61:10 Carry[9] 0.000106499
*RES
1 *564:X *64:12 46.7414 
2 *64:12 Carry[9] 19.952 
*END

*D_NET *65 0.00233705
*CONN
*P Sum[0] O
*I *565:X O *D sky130_fd_sc_hd__clkbuf_4
*CAP
1 Sum[0] 0.000260665
2 *565:X 0.00058035
3 *65:10 0.000841015
4 *65:10 *119:10 8.62783e-05
5 *65:10 *155:10 8.62783e-05
6 *65:10 *157:20 0
7 *65:10 *176:14 9.41704e-05
8 *4:21 *65:10 0
9 *6:19 Sum[0] 9.93916e-05
10 *6:19 *65:10 0.000166854
11 *13:13 Sum[0] 9.8882e-05
12 *13:13 *65:10 0
13 *44:9 *65:10 2.31687e-05
*RES