*SPEF "ieee 1481-1999"
*DESIGN "mbe"
*DATE "11:11:11 Fri 11 11, 1111"
*VENDOR "OpenRCX"
*PROGRAM "Parallel Extraction"
*VERSION "1.0"
*DESIGN_FLOW "NAME_SCOPE LOCAL" "PIN_CAP NONE"
*DIVIDER /
*DELIMITER :
*BUS_DELIMITER []
*T_UNIT 1 NS
*C_UNIT 1 PF
*R_UNIT 1 OHM
*L_UNIT 1 HENRY

*NAME_MAP
*1 A[0]
*2 A[1]
*3 A[2]
*4 A[3]
*5 A[4]
*6 A[5]
*7 A[6]
*8 A[7]
*9 B[0]
*10 B[1]
*11 B[2]
*12 B[3]
*13 B[4]
*14 B[5]
*15 B[6]
*16 B[7]
*17 P[0]
*18 P[10]
*19 P[11]
*20 P[12]
*21 P[13]
*22 P[14]
*23 P[15]
*24 P[1]
*25 P[2]
*26 P[3]
*27 P[4]
*28 P[5]
*29 P[6]
*30 P[7]
*31 P[8]
*32 P[9]
*35 _000_
*36 _001_
*37 _002_
*38 _003_
*39 _004_
*40 _005_
*41 _006_
*42 _007_
*43 _008_
*44 _009_
*45 _010_
*46 _011_
*47 _012_
*48 _013_
*49 _014_
*50 _015_
*51 _016_
*52 _017_
*53 _018_
*54 _019_
*55 _020_
*56 _021_
*57 _022_
*58 _023_
*59 _024_
*60 _025_
*61 _026_
*62 _027_
*63 _028_
*64 _029_
*65 _030_
*66 _031_
*67 _032_
*68 _033_
*69 _034_
*70 _035_
*71 _036_
*72 _037_
*73 _038_
*74 _039_
*75 _040_
*76 _041_
*77 _042_
*78 _043_
*79 _044_
*80 _045_
*81 _046_
*82 _047_
*83 _048_
*84 _049_
*85 _050_
*86 _051_
*87 _052_
*88 _053_
*89 _054_
*90 _055_
*91 _056_
*92 _057_
*93 _058_
*94 _059_
*95 _060_
*96 _061_
*97 _062_
*98 _063_
*99 _064_
*100 _065_
*101 _066_
*102 _067_
*103 _068_
*104 _069_
*105 _070_
*106 _071_
*107 _072_
*108 _073_
*109 _074_
*110 _075_
*111 _076_
*112 _077_
*113 _078_
*114 _079_
*115 _080_
*116 _081_
*117 _082_
*118 _083_
*119 _084_
*120 _085_
*121 _086_
*122 _087_
*123 _088_
*124 _089_
*125 _090_
*126 _091_
*127 _092_
*128 _093_
*129 _094_
*130 _095_
*131 _096_
*132 _097_
*133 _098_
*134 _099_
*135 _100_
*136 _101_
*137 _102_
*138 _103_
*139 _104_
*140 _105_
*141 _106_
*142 _107_
*143 _108_
*144 _109_
*145 _110_
*146 _111_
*147 _112_
*148 _113_
*149 _114_
*150 _115_
*151 _116_
*152 _117_
*153 _118_
*154 _119_
*155 _120_
*156 _121_
*157 _122_
*158 _123_
*159 _124_
*160 _125_
*161 _126_
*162 _127_
*163 _128_
*164 _129_
*165 _130_
*166 _131_
*167 _132_
*168 _133_
*169 _134_
*170 _135_
*171 _136_
*172 _137_
*173 _138_
*174 _139_
*175 _140_
*176 _141_
*177 _142_
*178 _143_
*179 _144_
*180 _145_
*181 _146_
*182 _147_
*183 _148_
*184 _149_
*185 _150_
*186 _151_
*187 _152_
*188 _153_
*189 _154_
*190 _155_
*191 _156_
*192 _157_
*193 _158_
*194 _159_
*195 _160_
*196 _161_
*197 _162_
*198 _163_
*199 _164_
*200 _165_
*201 _166_
*202 _167_
*203 _168_
*204 _169_
*205 _170_
*206 _171_
*207 _172_
*208 _173_
*209 _174_
*210 _175_
*211 _176_
*212 _177_
*213 _178_
*214 _179_
*215 _180_
*216 _181_
*217 _182_
*218 _183_
*219 _184_
*220 _185_
*221 _186_
*222 _187_
*223 _188_
*224 _189_
*225 _190_
*226 _191_
*227 _192_
*228 _193_
*229 _194_
*230 _195_
*231 _196_
*232 _197_
*233 _198_
*234 _199_
*235 _200_
*236 _201_
*237 _202_
*238 _203_
*239 _204_
*240 _205_
*241 _206_
*242 _207_
*243 _208_
*244 _209_
*245 _210_
*246 _211_
*247 _212_
*248 _213_
*249 _214_
*250 _215_
*251 _216_
*252 _217_
*253 _218_
*254 _219_
*255 _220_
*256 _221_
*257 _222_
*258 _223_
*259 _224_
*260 _225_
*261 _226_
*262 _227_
*263 _228_
*264 _229_
*265 _230_
*266 _231_
*267 _232_
*268 _233_
*269 _234_
*270 _235_
*271 _236_
*272 _237_
*273 _238_
*274 _239_
*275 _240_
*276 _241_
*277 _242_
*278 _243_
*279 _244_
*280 _245_
*281 _246_
*282 _247_
*283 _248_
*284 _249_
*285 _250_
*286 _251_
*287 _252_
*288 _253_
*289 _254_
*290 _255_
*291 _256_
*292 _257_
*293 _258_
*294 _259_
*295 _260_
*296 _261_
*297 _262_
*298 _263_
*299 _264_
*300 _265_
*301 _266_
*302 _267_
*303 _268_
*304 _269_
*305 _270_
*306 _271_
*307 _272_
*308 _273_
*309 _274_
*310 _275_
*311 _276_
*312 _277_
*313 net1
*314 net10
*315 net11
*316 net12
*317 net13
*318 net14
*319 net15
*320 net16
*321 net17
*322 net18
*323 net19
*324 net2
*325 net20
*326 net21
*327 net22
*328 net23
*329 net24
*330 net25
*331 net26
*332 net27
*333 net28
*334 net29
*335 net3
*336 net30
*337 net31
*338 net32
*339 net33
*340 net34
*341 net35
*342 net36
*343 net37
*344 net38
*345 net39
*346 net4
*347 net40
*348 net41
*349 net42
*350 net43
*351 net5
*352 net6
*353 net7
*354 net8
*355 net9
*356 FILLER_0_0_103
*357 FILLER_0_0_111
*358 FILLER_0_0_119
*359 FILLER_0_0_131
*360 FILLER_0_0_139
*361 FILLER_0_0_147
*362 FILLER_0_0_159
*363 FILLER_0_0_167
*364 FILLER_0_0_169
*365 FILLER_0_0_174
*366 FILLER_0_0_186
*367 FILLER_0_0_194
*368 FILLER_0_0_197
*369 FILLER_0_0_205
*370 FILLER_0_0_209
*371 FILLER_0_0_21
*372 FILLER_0_0_27
*373 FILLER_0_0_29
*374 FILLER_0_0_41
*375 FILLER_0_0_49
*376 FILLER_0_0_55
*377 FILLER_0_0_57
*378 FILLER_0_0_69
*379 FILLER_0_0_7
*380 FILLER_0_0_81
*381 FILLER_0_0_91
*382 FILLER_0_10_119
*383 FILLER_0_10_131
*384 FILLER_0_10_139
*385 FILLER_0_10_141
*386 FILLER_0_10_149
*387 FILLER_0_10_15
*388 FILLER_0_10_165
*389 FILLER_0_10_177
*390 FILLER_0_10_192
*391 FILLER_0_10_197
*392 FILLER_0_10_209
*393 FILLER_0_10_27
*394 FILLER_0_10_29
*395 FILLER_0_10_3
*396 FILLER_0_10_41
*397 FILLER_0_10_53
*398 FILLER_0_10_65
*399 FILLER_0_10_85
*400 FILLER_0_10_94
*401 FILLER_0_11_108
*402 FILLER_0_11_113
*403 FILLER_0_11_125
*404 FILLER_0_11_143
*405 FILLER_0_11_15
*406 FILLER_0_11_151
*407 FILLER_0_11_158
*408 FILLER_0_11_166
*409 FILLER_0_11_169
*410 FILLER_0_11_177
*411 FILLER_0_11_195
*412 FILLER_0_11_207
*413 FILLER_0_11_27
*414 FILLER_0_11_3
*415 FILLER_0_11_39
*416 FILLER_0_11_51
*417 FILLER_0_11_55
*418 FILLER_0_11_57
*419 FILLER_0_11_69
*420 FILLER_0_11_77
*421 FILLER_0_11_84
*422 FILLER_0_11_96
*423 FILLER_0_12_105
*424 FILLER_0_12_114
*425 FILLER_0_12_126
*426 FILLER_0_12_136
*427 FILLER_0_12_141
*428 FILLER_0_12_174
*429 FILLER_0_12_181
*430 FILLER_0_12_188
*431 FILLER_0_12_204
*432 FILLER_0_12_23
*433 FILLER_0_12_27
*434 FILLER_0_12_29
*435 FILLER_0_12_41
*436 FILLER_0_12_71
*437 FILLER_0_12_83
*438 FILLER_0_12_85
*439 FILLER_0_12_9
*440 FILLER_0_12_97
*441 FILLER_0_13_11
*442 FILLER_0_13_110
*443 FILLER_0_13_113
*444 FILLER_0_13_125
*445 FILLER_0_13_129
*446 FILLER_0_13_135
*447 FILLER_0_13_149
*448 FILLER_0_13_161
*449 FILLER_0_13_167
*450 FILLER_0_13_169
*451 FILLER_0_13_181
*452 FILLER_0_13_189
*453 FILLER_0_13_199
*454 FILLER_0_13_207
*455 FILLER_0_13_3
*456 FILLER_0_13_34
*457 FILLER_0_13_46
*458 FILLER_0_13_54
*459 FILLER_0_13_7
*460 FILLER_0_13_73
*461 FILLER_0_13_98
*462 FILLER_0_14_11
*463 FILLER_0_14_114
*464 FILLER_0_14_126
*465 FILLER_0_14_136
*466 FILLER_0_14_141
*467 FILLER_0_14_153
*468 FILLER_0_14_161
*469 FILLER_0_14_18
*470 FILLER_0_14_185
*471 FILLER_0_14_192
*472 FILLER_0_14_197
*473 FILLER_0_14_203
*474 FILLER_0_14_25
*475 FILLER_0_14_3
*476 FILLER_0_14_33
*477 FILLER_0_14_45
*478 FILLER_0_14_57
*479 FILLER_0_14_69
*480 FILLER_0_14_80
*481 FILLER_0_15_106
*482 FILLER_0_15_120
*483 FILLER_0_15_15
*484 FILLER_0_15_159
*485 FILLER_0_15_167
*486 FILLER_0_15_169
*487 FILLER_0_15_181
*488 FILLER_0_15_193
*489 FILLER_0_15_205
*490 FILLER_0_15_209
*491 FILLER_0_15_27
*492 FILLER_0_15_3
*493 FILLER_0_15_36
*494 FILLER_0_15_48
*495 FILLER_0_15_57
*496 FILLER_0_15_69
*497 FILLER_0_15_82
*498 FILLER_0_15_90
*499 FILLER_0_16_109
*500 FILLER_0_16_121
*501 FILLER_0_16_133
*502 FILLER_0_16_139
*503 FILLER_0_16_141
*504 FILLER_0_16_153
*505 FILLER_0_16_162
*506 FILLER_0_16_174
*507 FILLER_0_16_186
*508 FILLER_0_16_193
*509 FILLER_0_16_197
*510 FILLER_0_16_209
*511 FILLER_0_16_21
*512 FILLER_0_16_27
*513 FILLER_0_16_29
*514 FILLER_0_16_45
*515 FILLER_0_16_57
*516 FILLER_0_16_69
*517 FILLER_0_16_81
*518 FILLER_0_16_85
*519 FILLER_0_16_9
*520 FILLER_0_16_97
*521 FILLER_0_17_106
*522 FILLER_0_17_121
*523 FILLER_0_17_129
*524 FILLER_0_17_137
*525 FILLER_0_17_147
*526 FILLER_0_17_159
*527 FILLER_0_17_167
*528 FILLER_0_17_175
*529 FILLER_0_17_179
*530 FILLER_0_17_19
*531 FILLER_0_17_208
*532 FILLER_0_17_27
*533 FILLER_0_17_3
*534 FILLER_0_17_44
*535 FILLER_0_17_70
*536 FILLER_0_17_82
*537 FILLER_0_17_94
*538 FILLER_0_18_104
*539 FILLER_0_18_125
*540 FILLER_0_18_13
*541 FILLER_0_18_131
*542 FILLER_0_18_138
*543 FILLER_0_18_141
*544 FILLER_0_18_151
*545 FILLER_0_18_163
*546 FILLER_0_18_171
*547 FILLER_0_18_183
*548 FILLER_0_18_194
*549 FILLER_0_18_202
*550 FILLER_0_18_25
*551 FILLER_0_18_29
*552 FILLER_0_18_3
*553 FILLER_0_18_41
*554 FILLER_0_18_49
*555 FILLER_0_18_69
*556 FILLER_0_18_77
*557 FILLER_0_18_92
*558 FILLER_0_19_111
*559 FILLER_0_19_119
*560 FILLER_0_19_127
*561 FILLER_0_19_138
*562 FILLER_0_19_15
*563 FILLER_0_19_150
*564 FILLER_0_19_154
*565 FILLER_0_19_176
*566 FILLER_0_19_188
*567 FILLER_0_19_200
*568 FILLER_0_19_27
*569 FILLER_0_19_3
*570 FILLER_0_19_42
*571 FILLER_0_19_54
*572 FILLER_0_19_57
*573 FILLER_0_19_64
*574 FILLER_0_19_76
*575 FILLER_0_19_88
*576 FILLER_0_19_99
*577 FILLER_0_1_103
*578 FILLER_0_1_109
*579 FILLER_0_1_113
*580 FILLER_0_1_122
*581 FILLER_0_1_134
*582 FILLER_0_1_142
*583 FILLER_0_1_150
*584 FILLER_0_1_158
*585 FILLER_0_1_166
*586 FILLER_0_1_169
*587 FILLER_0_1_181
*588 FILLER_0_1_19
*589 FILLER_0_1_193
*590 FILLER_0_1_201
*591 FILLER_0_1_31
*592 FILLER_0_1_43
*593 FILLER_0_1_55
*594 FILLER_0_1_64
*595 FILLER_0_1_7
*596 FILLER_0_1_72
*597 FILLER_0_1_79
*598 FILLER_0_1_83
*599 FILLER_0_1_91
*600 FILLER_0_20_104
*601 FILLER_0_20_112
*602 FILLER_0_20_119
*603 FILLER_0_20_131
*604 FILLER_0_20_139
*605 FILLER_0_20_141
*606 FILLER_0_20_15
*607 FILLER_0_20_153
*608 FILLER_0_20_165
*609 FILLER_0_20_177
*610 FILLER_0_20_189
*611 FILLER_0_20_195
*612 FILLER_0_20_197
*613 FILLER_0_20_209
*614 FILLER_0_20_27
*615 FILLER_0_20_29
*616 FILLER_0_20_3
*617 FILLER_0_20_33
*618 FILLER_0_20_50
*619 FILLER_0_20_62
*620 FILLER_0_20_80
*621 FILLER_0_20_92
*622 FILLER_0_21_11
*623 FILLER_0_21_113
*624 FILLER_0_21_126
*625 FILLER_0_21_138
*626 FILLER_0_21_150
*627 FILLER_0_21_158
*628 FILLER_0_21_162
*629 FILLER_0_21_169
*630 FILLER_0_21_181
*631 FILLER_0_21_202
*632 FILLER_0_21_25
*633 FILLER_0_21_3
*634 FILLER_0_21_33
*635 FILLER_0_21_43
*636 FILLER_0_21_55
*637 FILLER_0_21_57
*638 FILLER_0_21_63
*639 FILLER_0_21_67
*640 FILLER_0_21_81
*641 FILLER_0_21_93
*642 FILLER_0_22_109
*643 FILLER_0_22_121
*644 FILLER_0_22_127
*645 FILLER_0_22_171
*646 FILLER_0_22_187
*647 FILLER_0_22_195
*648 FILLER_0_22_197
*649 FILLER_0_22_209
*650 FILLER_0_22_23
*651 FILLER_0_22_27
*652 FILLER_0_22_29
*653 FILLER_0_22_41
*654 FILLER_0_22_53
*655 FILLER_0_22_65
*656 FILLER_0_22_7
*657 FILLER_0_22_77
*658 FILLER_0_22_83
*659 FILLER_0_22_85
*660 FILLER_0_22_97
*661 FILLER_0_23_103
*662 FILLER_0_23_111
*663 FILLER_0_23_116
*664 FILLER_0_23_128
*665 FILLER_0_23_143
*666 FILLER_0_23_15
*667 FILLER_0_23_151
*668 FILLER_0_23_167
*669 FILLER_0_23_169
*670 FILLER_0_23_194
*671 FILLER_0_23_206
*672 FILLER_0_23_27
*673 FILLER_0_23_3
*674 FILLER_0_23_35
*675 FILLER_0_23_41
*676 FILLER_0_23_53
*677 FILLER_0_23_57
*678 FILLER_0_23_71
*679 FILLER_0_23_83
*680 FILLER_0_23_91
*681 FILLER_0_24_101
*682 FILLER_0_24_128
*683 FILLER_0_24_135
*684 FILLER_0_24_139
*685 FILLER_0_24_141
*686 FILLER_0_24_15
*687 FILLER_0_24_153
*688 FILLER_0_24_165
*689 FILLER_0_24_177
*690 FILLER_0_24_189
*691 FILLER_0_24_195
*692 FILLER_0_24_197
*693 FILLER_0_24_203
*694 FILLER_0_24_27
*695 FILLER_0_24_29
*696 FILLER_0_24_3
*697 FILLER_0_24_41
*698 FILLER_0_24_45
*699 FILLER_0_24_52
*700 FILLER_0_24_60
*701 FILLER_0_24_74
*702 FILLER_0_24_82
*703 FILLER_0_24_85
*704 FILLER_0_24_97
*705 FILLER_0_25_101
*706 FILLER_0_25_130
*707 FILLER_0_25_142
*708 FILLER_0_25_15
*709 FILLER_0_25_154
*710 FILLER_0_25_166
*711 FILLER_0_25_169
*712 FILLER_0_25_177
*713 FILLER_0_25_190
*714 FILLER_0_25_202
*715 FILLER_0_25_27
*716 FILLER_0_25_3
*717 FILLER_0_25_39
*718 FILLER_0_25_45
*719 FILLER_0_25_63
*720 FILLER_0_25_75
*721 FILLER_0_25_83
*722 FILLER_0_25_93
*723 FILLER_0_26_108
*724 FILLER_0_26_11
*725 FILLER_0_26_120
*726 FILLER_0_26_128
*727 FILLER_0_26_138
*728 FILLER_0_26_149
*729 FILLER_0_26_172
*730 FILLER_0_26_195
*731 FILLER_0_26_197
*732 FILLER_0_26_20
*733 FILLER_0_26_209
*734 FILLER_0_26_24
*735 FILLER_0_26_3
*736 FILLER_0_26_38
*737 FILLER_0_26_49
*738 FILLER_0_26_61
*739 FILLER_0_26_73
*740 FILLER_0_26_81
*741 FILLER_0_26_85
*742 FILLER_0_26_89
*743 FILLER_0_26_96
*744 FILLER_0_27_111
*745 FILLER_0_27_113
*746 FILLER_0_27_132
*747 FILLER_0_27_150
*748 FILLER_0_27_162
*749 FILLER_0_27_169
*750 FILLER_0_27_181
*751 FILLER_0_27_196
*752 FILLER_0_27_208
*753 FILLER_0_27_28
*754 FILLER_0_27_3
*755 FILLER_0_27_36
*756 FILLER_0_27_41
*757 FILLER_0_27_53
*758 FILLER_0_27_57
*759 FILLER_0_27_69
*760 FILLER_0_27_82
*761 FILLER_0_27_88
*762 FILLER_0_27_99
*763 FILLER_0_28_106
*764 FILLER_0_28_118
*765 FILLER_0_28_130
*766 FILLER_0_28_138
*767 FILLER_0_28_141
*768 FILLER_0_28_153
*769 FILLER_0_28_16
*770 FILLER_0_28_165
*771 FILLER_0_28_177
*772 FILLER_0_28_189
*773 FILLER_0_28_195
*774 FILLER_0_28_197
*775 FILLER_0_28_209
*776 FILLER_0_28_24
*777 FILLER_0_28_29
*778 FILLER_0_28_3
*779 FILLER_0_28_41
*780 FILLER_0_28_53
*781 FILLER_0_28_61
*782 FILLER_0_28_75
*783 FILLER_0_28_83
*784 FILLER_0_28_94
*785 FILLER_0_29_109
*786 FILLER_0_29_119
*787 FILLER_0_29_131
*788 FILLER_0_29_143
*789 FILLER_0_29_155
*790 FILLER_0_29_167
*791 FILLER_0_29_169
*792 FILLER_0_29_181
*793 FILLER_0_29_193
*794 FILLER_0_29_205
*795 FILLER_0_29_209
*796 FILLER_0_29_31
*797 FILLER_0_29_39
*798 FILLER_0_29_54
*799 FILLER_0_29_57
*800 FILLER_0_29_6
*801 FILLER_0_29_68
*802 FILLER_0_29_74
*803 FILLER_0_29_80
*804 FILLER_0_29_92
*805 FILLER_0_2_115
*806 FILLER_0_2_123
*807 FILLER_0_2_139
*808 FILLER_0_2_147
*809 FILLER_0_2_15
*810 FILLER_0_2_168
*811 FILLER_0_2_174
*812 FILLER_0_2_182
*813 FILLER_0_2_194
*814 FILLER_0_2_197
*815 FILLER_0_2_205
*816 FILLER_0_2_27
*817 FILLER_0_2_29
*818 FILLER_0_2_3
*819 FILLER_0_2_41
*820 FILLER_0_2_50
*821 FILLER_0_2_62
*822 FILLER_0_2_96
*823 FILLER_0_30_127
*824 FILLER_0_30_135
*825 FILLER_0_30_139
*826 FILLER_0_30_141
*827 FILLER_0_30_15
*828 FILLER_0_30_153
*829 FILLER_0_30_177
*830 FILLER_0_30_193
*831 FILLER_0_30_197
*832 FILLER_0_30_205
*833 FILLER_0_30_27
*834 FILLER_0_30_29
*835 FILLER_0_30_3
*836 FILLER_0_30_38
*837 FILLER_0_30_50
*838 FILLER_0_30_62
*839 FILLER_0_30_74
*840 FILLER_0_30_85
*841 FILLER_0_31_109
*842 FILLER_0_31_113
*843 FILLER_0_31_122
*844 FILLER_0_31_130
*845 FILLER_0_31_140
*846 FILLER_0_31_15
*847 FILLER_0_31_166
*848 FILLER_0_31_174
*849 FILLER_0_31_186
*850 FILLER_0_31_198
*851 FILLER_0_31_27
*852 FILLER_0_31_3
*853 FILLER_0_31_39
*854 FILLER_0_31_51
*855 FILLER_0_31_55
*856 FILLER_0_31_57
*857 FILLER_0_31_69
*858 FILLER_0_31_81
*859 FILLER_0_31_93
*860 FILLER_0_31_99
*861 FILLER_0_32_109
*862 FILLER_0_32_121
*863 FILLER_0_32_133
*864 FILLER_0_32_139
*865 FILLER_0_32_141
*866 FILLER_0_32_15
*867 FILLER_0_32_153
*868 FILLER_0_32_165
*869 FILLER_0_32_177
*870 FILLER_0_32_189
*871 FILLER_0_32_195
*872 FILLER_0_32_197
*873 FILLER_0_32_209
*874 FILLER_0_32_27
*875 FILLER_0_32_29
*876 FILLER_0_32_3
*877 FILLER_0_32_41
*878 FILLER_0_32_53
*879 FILLER_0_32_69
*880 FILLER_0_32_81
*881 FILLER_0_32_85
*882 FILLER_0_32_97
*883 FILLER_0_33_105
*884 FILLER_0_33_111
*885 FILLER_0_33_113
*886 FILLER_0_33_125
*887 FILLER_0_33_133
*888 FILLER_0_33_142
*889 FILLER_0_33_15
*890 FILLER_0_33_154
*891 FILLER_0_33_162
*892 FILLER_0_33_175
*893 FILLER_0_33_183
*894 FILLER_0_33_198
*895 FILLER_0_33_27
*896 FILLER_0_33_3
*897 FILLER_0_33_39
*898 FILLER_0_33_47
*899 FILLER_0_33_51
*900 FILLER_0_33_55
*901 FILLER_0_33_67
*902 FILLER_0_33_73
*903 FILLER_0_33_84
*904 FILLER_0_33_93
*905 FILLER_0_34_102
*906 FILLER_0_34_127
*907 FILLER_0_34_139
*908 FILLER_0_34_141
*909 FILLER_0_34_155
*910 FILLER_0_34_167
*911 FILLER_0_34_172
*912 FILLER_0_34_184
*913 FILLER_0_34_188
*914 FILLER_0_34_197
*915 FILLER_0_34_205
*916 FILLER_0_34_21
*917 FILLER_0_34_27
*918 FILLER_0_34_29
*919 FILLER_0_34_41
*920 FILLER_0_34_53
*921 FILLER_0_34_72
*922 FILLER_0_34_82
*923 FILLER_0_34_9
*924 FILLER_0_35_105
*925 FILLER_0_35_111
*926 FILLER_0_35_113
*927 FILLER_0_35_125
*928 FILLER_0_35_132
*929 FILLER_0_35_14
*930 FILLER_0_35_141
*931 FILLER_0_35_153
*932 FILLER_0_35_161
*933 FILLER_0_35_167
*934 FILLER_0_35_169
*935 FILLER_0_35_181
*936 FILLER_0_35_189
*937 FILLER_0_35_197
*938 FILLER_0_35_209
*939 FILLER_0_35_26
*940 FILLER_0_35_29
*941 FILLER_0_35_37
*942 FILLER_0_35_48
*943 FILLER_0_35_57
*944 FILLER_0_35_69
*945 FILLER_0_35_77
*946 FILLER_0_35_83
*947 FILLER_0_35_85
*948 FILLER_0_35_9
*949 FILLER_0_35_97
*950 FILLER_0_3_105
*951 FILLER_0_3_113
*952 FILLER_0_3_125
*953 FILLER_0_3_137
*954 FILLER_0_3_149
*955 FILLER_0_3_15
*956 FILLER_0_3_161
*957 FILLER_0_3_167
*958 FILLER_0_3_169
*959 FILLER_0_3_181
*960 FILLER_0_3_193
*961 FILLER_0_3_205
*962 FILLER_0_3_209
*963 FILLER_0_3_27
*964 FILLER_0_3_3
*965 FILLER_0_3_39
*966 FILLER_0_3_51
*967 FILLER_0_3_55
*968 FILLER_0_3_57
*969 FILLER_0_3_69
*970 FILLER_0_3_81
*971 FILLER_0_3_93
*972 FILLER_0_4_109
*973 FILLER_0_4_121
*974 FILLER_0_4_133
*975 FILLER_0_4_139
*976 FILLER_0_4_141
*977 FILLER_0_4_15
*978 FILLER_0_4_163
*979 FILLER_0_4_175
*980 FILLER_0_4_187
*981 FILLER_0_4_191
*982 FILLER_0_4_195
*983 FILLER_0_4_197
*984 FILLER_0_4_209
*985 FILLER_0_4_27
*986 FILLER_0_4_29
*987 FILLER_0_4_3
*988 FILLER_0_4_41
*989 FILLER_0_4_54
*990 FILLER_0_4_66
*991 FILLER_0_4_78
*992 FILLER_0_4_85
*993 FILLER_0_4_97
*994 FILLER_0_5_111
*995 FILLER_0_5_122
*996 FILLER_0_5_131
*997 FILLER_0_5_143
*998 FILLER_0_5_15
*999 FILLER_0_5_155
*1000 FILLER_0_5_167
*1001 FILLER_0_5_176
*1002 FILLER_0_5_197
*1003 FILLER_0_5_209
*1004 FILLER_0_5_27
*1005 FILLER_0_5_3
*1006 FILLER_0_5_39
*1007 FILLER_0_5_51
*1008 FILLER_0_5_55
*1009 FILLER_0_5_57
*1010 FILLER_0_5_69
*1011 FILLER_0_5_77
*1012 FILLER_0_5_99
*1013 FILLER_0_6_103
*1014 FILLER_0_6_120
*1015 FILLER_0_6_132
*1016 FILLER_0_6_151
*1017 FILLER_0_6_163
*1018 FILLER_0_6_175
*1019 FILLER_0_6_184
*1020 FILLER_0_6_194
*1021 FILLER_0_6_197
*1022 FILLER_0_6_209
*1023 FILLER_0_6_21
*1024 FILLER_0_6_27
*1025 FILLER_0_6_29
*1026 FILLER_0_6_41
*1027 FILLER_0_6_53
*1028 FILLER_0_6_59
*1029 FILLER_0_6_73
*1030 FILLER_0_6_81
*1031 FILLER_0_6_85
*1032 FILLER_0_6_89
*1033 FILLER_0_6_9
*1034 FILLER_0_7_103
*1035 FILLER_0_7_111
*1036 FILLER_0_7_126
*1037 FILLER_0_7_133
*1038 FILLER_0_7_145
*1039 FILLER_0_7_15
*1040 FILLER_0_7_157
*1041 FILLER_0_7_165
*1042 FILLER_0_7_169
*1043 FILLER_0_7_174
*1044 FILLER_0_7_186
*1045 FILLER_0_7_194
*1046 FILLER_0_7_23
*1047 FILLER_0_7_29
*1048 FILLER_0_7_3
*1049 FILLER_0_7_39
*1050 FILLER_0_7_51
*1051 FILLER_0_7_55
*1052 FILLER_0_7_63
*1053 FILLER_0_7_71
*1054 FILLER_0_7_83
*1055 FILLER_0_7_92
*1056 FILLER_0_8_109
*1057 FILLER_0_8_121
*1058 FILLER_0_8_141
*1059 FILLER_0_8_15
*1060 FILLER_0_8_153
*1061 FILLER_0_8_165
*1062 FILLER_0_8_175
*1063 FILLER_0_8_187
*1064 FILLER_0_8_195
*1065 FILLER_0_8_197
*1066 FILLER_0_8_20
*1067 FILLER_0_8_209
*1068 FILLER_0_8_3
*1069 FILLER_0_8_54
*1070 FILLER_0_8_60
*1071 FILLER_0_8_64
*1072 FILLER_0_8_76
*1073 FILLER_0_8_85
*1074 FILLER_0_8_97
*1075 FILLER_0_9_105
*1076 FILLER_0_9_110
*1077 FILLER_0_9_113
*1078 FILLER_0_9_125
*1079 FILLER_0_9_137
*1080 FILLER_0_9_149
*1081 FILLER_0_9_15
*1082 FILLER_0_9_159
*1083 FILLER_0_9_167
*1084 FILLER_0_9_169
*1085 FILLER_0_9_181
*1086 FILLER_0_9_187
*1087 FILLER_0_9_19
*1088 FILLER_0_9_195
*1089 FILLER_0_9_207
*1090 FILLER_0_9_3
*1091 FILLER_0_9_31
*1092 FILLER_0_9_37
*1093 FILLER_0_9_63
*1094 FILLER_0_9_71
*1095 FILLER_0_9_81
*1096 FILLER_0_9_93
*1097 PHY_0
*1098 PHY_1
*1099 PHY_10
*1100 PHY_11
*1101 PHY_12
*1102 PHY_13
*1103 PHY_14
*1104 PHY_15
*1105 PHY_16
*1106 PHY_17
*1107 PHY_18
*1108 PHY_19
*1109 PHY_2
*1110 PHY_20
*1111 PHY_21
*1112 PHY_22
*1113 PHY_23
*1114 PHY_24
*1115 PHY_25
*1116 PHY_26
*1117 PHY_27
*1118 PHY_28
*1119 PHY_29
*1120 PHY_3
*1121 PHY_30
*1122 PHY_31
*1123 PHY_32
*1124 PHY_33
*1125 PHY_34
*1126 PHY_35
*1127 PHY_36
*1128 PHY_37
*1129 PHY_38
*1130 PHY_39
*1131 PHY_4
*1132 PHY_40
*1133 PHY_41
*1134 PHY_42
*1135 PHY_43
*1136 PHY_44
*1137 PHY_45
*1138 PHY_46
*1139 PHY_47
*1140 PHY_48
*1141 PHY_49
*1142 PHY_5
*1143 PHY_50
*1144 PHY_51
*1145 PHY_52
*1146 PHY_53
*1147 PHY_54
*1148 PHY_55
*1149 PHY_56
*1150 PHY_57
*1151 PHY_58
*1152 PHY_59
*1153 PHY_6
*1154 PHY_60
*1155 PHY_61
*1156 PHY_62
*1157 PHY_63
*1158 PHY_64
*1159 PHY_65
*1160 PHY_66
*1161 PHY_67
*1162 PHY_68
*1163 PHY_69
*1164 PHY_7
*1165 PHY_70
*1166 PHY_71
*1167 PHY_8
*1168 PHY_9
*1169 TAP_100
*1170 TAP_101
*1171 TAP_102
*1172 TAP_103
*1173 TAP_104
*1174 TAP_105
*1175 TAP_106
*1176 TAP_107
*1177 TAP_108
*1178 TAP_109
*1179 TAP_110
*1180 TAP_111
*1181 TAP_112
*1182 TAP_113
*1183 TAP_114
*1184 TAP_115
*1185 TAP_116
*1186 TAP_117
*1187 TAP_118
*1188 TAP_119
*1189 TAP_120
*1190 TAP_121
*1191 TAP_122
*1192 TAP_123
*1193 TAP_124
*1194 TAP_125
*1195 TAP_126
*1196 TAP_127
*1197 TAP_128
*1198 TAP_129
*1199 TAP_130
*1200 TAP_131
*1201 TAP_132
*1202 TAP_133
*1203 TAP_134
*1204 TAP_135
*1205 TAP_136
*1206 TAP_137
*1207 TAP_138
*1208 TAP_139
*1209 TAP_140
*1210 TAP_141
*1211 TAP_142
*1212 TAP_143
*1213 TAP_144
*1214 TAP_145
*1215 TAP_146
*1216 TAP_147
*1217 TAP_148
*1218 TAP_149
*1219 TAP_150
*1220 TAP_151
*1221 TAP_152
*1222 TAP_153
*1223 TAP_154
*1224 TAP_155
*1225 TAP_156
*1226 TAP_157
*1227 TAP_158
*1228 TAP_159
*1229 TAP_160
*1230 TAP_161
*1231 TAP_162
*1232 TAP_163
*1233 TAP_164
*1234 TAP_165
*1235 TAP_166
*1236 TAP_167
*1237 TAP_168
*1238 TAP_169
*1239 TAP_170
*1240 TAP_171
*1241 TAP_172
*1242 TAP_173
*1243 TAP_174
*1244 TAP_175
*1245 TAP_176
*1246 TAP_177
*1247 TAP_178
*1248 TAP_179
*1249 TAP_180
*1250 TAP_181
*1251 TAP_182
*1252 TAP_183
*1253 TAP_184
*1254 TAP_185
*1255 TAP_186
*1256 TAP_187
*1257 TAP_188
*1258 TAP_189
*1259 TAP_190
*1260 TAP_191
*1261 TAP_192
*1262 TAP_193
*1263 TAP_194
*1264 TAP_195
*1265 TAP_196
*1266 TAP_197
*1267 TAP_198
*1268 TAP_199
*1269 TAP_200
*1270 TAP_201
*1271 TAP_202
*1272 TAP_203
*1273 TAP_204
*1274 TAP_72
*1275 TAP_73
*1276 TAP_74
*1277 TAP_75
*1278 TAP_76
*1279 TAP_77
*1280 TAP_78
*1281 TAP_79
*1282 TAP_80
*1283 TAP_81
*1284 TAP_82
*1285 TAP_83
*1286 TAP_84
*1287 TAP_85
*1288 TAP_86
*1289 TAP_87
*1290 TAP_88
*1291 TAP_89
*1292 TAP_90
*1293 TAP_91
*1294 TAP_92
*1295 TAP_93
*1296 TAP_94
*1297 TAP_95
*1298 TAP_96
*1299 TAP_97
*1300 TAP_98
*1301 TAP_99
*1302 _278_
*1303 _279_
*1304 _280_
*1305 _281_
*1306 _282_
*1307 _283_
*1308 _284_
*1309 _285_
*1310 _286_
*1311 _287_
*1312 _288_
*1313 _289_
*1314 _290_
*1315 _291_
*1316 _292_
*1317 _293_
*1318 _294_
*1319 _295_
*1320 _296_
*1321 _297_
*1322 _298_
*1323 _299_
*1324 _300_
*1325 _301_
*1326 _302_
*1327 _303_
*1328 _304_
*1329 _305_
*1330 _306_
*1331 _307_
*1332 _308_
*1333 _309_
*1334 _310_
*1335 _311_
*1336 _312_
*1337 _313_
*1338 _314_
*1339 _315_
*1340 _316_
*1341 _317_
*1342 _318_
*1343 _319_
*1344 _320_
*1345 _321_
*1346 _322_
*1347 _323_
*1348 _324_
*1349 _325_
*1350 _326_
*1351 _327_
*1352 _328_
*1353 _329_
*1354 _330_
*1355 _331_
*1356 _332_
*1357 _333_
*1358 _334_
*1359 _335_
*1360 _336_
*1361 _337_
*1362 _338_
*1363 _339_
*1364 _340_
*1365 _341_
*1366 _342_
*1367 _343_
*1368 _344_
*1369 _345_
*1370 _346_
*1371 _347_
*1372 _348_
*1373 _349_
*1374 _350_
*1375 _351_
*1376 _352_
*1377 _353_
*1378 _354_
*1379 _355_
*1380 _356_
*1381 _357_
*1382 _358_
*1383 _359_
*1384 _360_
*1385 _361_
*1386 _362_
*1387 _363_
*1388 _364_
*1389 _365_
*1390 _366_
*1391 _367_
*1392 _368_
*1393 _369_
*1394 _370_
*1395 _371_
*1396 _372_
*1397 _373_
*1398 _374_
*1399 _375_
*1400 _376_
*1401 _377_
*1402 _378_
*1403 _379_
*1404 _380_
*1405 _381_
*1406 _382_
*1407 _383_
*1408 _384_
*1409 _385_
*1410 _386_
*1411 _387_
*1412 _388_
*1413 _389_
*1414 _390_
*1415 _391_
*1416 _392_
*1417 _393_
*1418 _394_
*1419 _395_
*1420 _396_
*1421 _397_
*1422 _398_
*1423 _399_
*1424 _400_
*1425 _401_
*1426 _402_
*1427 _403_
*1428 _404_
*1429 _405_
*1430 _406_
*1431 _407_
*1432 _408_
*1433 _409_
*1434 _410_
*1435 _411_
*1436 _412_
*1437 _413_
*1438 _414_
*1439 _415_
*1440 _416_
*1441 _417_
*1442 _418_
*1443 _419_
*1444 _420_
*1445 _421_
*1446 _422_
*1447 _423_
*1448 _424_
*1449 _425_
*1450 _426_
*1451 _427_
*1452 _428_
*1453 _429_
*1454 _430_
*1455 _431_
*1456 _432_
*1457 _433_
*1458 _434_
*1459 _435_
*1460 _436_
*1461 _437_
*1462 _438_
*1463 _439_
*1464 _440_
*1465 _441_
*1466 _442_
*1467 _443_
*1468 _444_
*1469 _445_
*1470 _446_
*1471 _447_
*1472 _448_
*1473 _449_
*1474 _450_
*1475 _451_
*1476 _452_
*1477 _453_
*1478 _454_
*1479 _455_
*1480 _456_
*1481 _457_
*1482 _458_
*1483 _459_
*1484 _460_
*1485 _461_
*1486 _462_
*1487 _463_
*1488 _464_
*1489 _465_
*1490 _466_
*1491 _467_
*1492 _468_
*1493 _469_
*1494 _470_
*1495 _471_
*1496 _472_
*1497 _473_
*1498 _474_
*1499 _475_
*1500 _476_
*1501 _477_
*1502 _478_
*1503 _479_
*1504 _480_
*1505 _481_
*1506 _482_
*1507 _483_
*1508 _484_
*1509 _485_
*1510 _486_
*1511 _487_
*1512 _488_
*1513 _489_
*1514 _490_
*1515 _491_
*1516 _492_
*1517 _493_
*1518 _494_
*1519 _495_
*1520 _496_
*1521 _497_
*1522 _498_
*1523 _499_
*1524 _500_
*1525 _501_
*1526 _502_
*1527 _503_
*1528 _504_
*1529 _505_
*1530 _506_
*1531 _507_
*1532 _508_
*1533 _509_
*1534 _510_
*1535 _511_
*1536 _512_
*1537 _513_
*1538 _514_
*1539 _515_
*1540 _516_
*1541 _517_
*1542 _518_
*1543 _519_
*1544 _520_
*1545 _521_
*1546 _522_
*1547 _523_
*1548 _524_
*1549 _525_
*1550 _526_
*1551 _527_
*1552 _528_
*1553 _529_
*1554 _530_
*1555 _531_
*1556 _532_
*1557 _533_
*1558 _534_
*1559 _535_
*1560 _536_
*1561 _537_
*1562 _538_
*1563 _539_
*1564 _540_
*1565 _541_
*1566 _542_
*1567 _543_
*1568 _544_
*1569 _545_
*1570 _546_
*1571 _547_
*1572 _548_
*1573 _549_
*1574 _550_
*1575 _551_
*1576 _552_
*1577 _553_
*1578 _554_
*1579 _555_
*1580 _556_
*1581 _557_
*1582 _558_
*1583 _559_
*1584 _560_
*1585 _561_
*1586 _562_
*1587 _563_
*1588 _564_
*1589 _565_
*1590 _566_
*1591 _567_
*1592 _568_
*1593 _569_
*1594 _570_
*1595 _571_
*1596 input1
*1597 input10
*1598 input11
*1599 input12
*1600 input13
*1601 input14
*1602 input15
*1603 input16
*1604 input2
*1605 input3
*1606 input4
*1607 input5
*1608 input6
*1609 input7
*1610 input8
*1611 input9
*1612 max_cap34
*1613 max_cap35
*1614 output17
*1615 output18
*1616 output19
*1617 output20
*1618 output21
*1619 output22
*1620 output23
*1621 output24
*1622 output25
*1623 output26
*1624 output27
*1625 output28
*1626 output29
*1627 output30
*1628 output31
*1629 output32
*1630 rebuffer1
*1631 rebuffer2
*1632 rebuffer3
*1633 rebuffer4
*1634 rebuffer5
*1635 rebuffer6
*1636 rebuffer7
*1637 rebuffer8
*1638 wire33

*PORTS
A[0] I
A[1] I
A[2] I
A[3] I
A[4] I
A[5] I
A[6] I
A[7] I
B[0] I
B[1] I
B[2] I
B[3] I
B[4] I
B[5] I
B[6] I
B[7] I
P[0] O
P[10] O
P[11] O
P[12] O
P[13] O
P[14] O
P[15] O
P[1] O
P[2] O
P[3] O
P[4] O
P[5] O
P[6] O
P[7] O
P[8] O
P[9] O

*D_NET *1 0.00140123
*CONN
*P A[0] I
*I *1596:A I *D sky130_fd_sc_hd__buf_6
*CAP
1 A[0] 0.000700616
2 *1596:A 0.000700616
*RES
1 A[0] *1596:A 26.9607 
*END

*D_NET *2 0.00072278
*CONN
*P A[1] I
*I *1604:A I *D sky130_fd_sc_hd__buf_1
*CAP
1 A[1] 0.000325879
2 *1604:A 0.000325879
3 *1604:A *337:16 7.10212e-05
*RES
1 A[1] *1604:A 19.8412 
*END

*D_NET *3 0.000526071
*CONN
*P A[2] I
*I *1605:A I *D sky130_fd_sc_hd__buf_4
*CAP
1 A[2] 0.000263036
2 *1605:A 0.000263036
*RES
1 A[2] *1605:A 18.73 
*END

*D_NET *4 0.00132877
*CONN
*P A[3] I
*I *1606:A I *D sky130_fd_sc_hd__clkbuf_4
*CAP
1 A[3] 0.000528009
2 *1606:A 0.000528009
3 *1606:A *1626:A 0.000272751
*RES
1 A[3] *1606:A 24.2464 
*END

*D_NET *5 0.000870101
*CONN
*P A[4] I
*I *1607:A I *D sky130_fd_sc_hd__dlymetal6s2s_1
*CAP
1 A[4] 0.000435051
2 *1607:A 0.000435051
*RES
1 A[4] *1607:A 22.5679 
*END

*D_NET *6 0.000986687
*CONN
*P A[5] I
*I *1608:A I *D sky130_fd_sc_hd__buf_1
*CAP
1 A[5] 0.000493343
2 *1608:A 0.000493343
*RES
1 A[5] *1608:A 23.3893 
*END

*D_NET *7 0.000977946
*CONN
*P A[6] I
*I *1609:A I *D sky130_fd_sc_hd__clkbuf_4
*CAP
1 A[6] 0.000488973
2 *1609:A 0.000488973
*RES
1 A[6] *1609:A 23.5679 
*END

*D_NET *8 0.000729443
*CONN
*P A[7] I
*I *1610:A I *D sky130_fd_sc_hd__buf_2
*CAP
1 A[7] 0.000364721
2 *1610:A 0.000364721
*RES
1 A[7] *1610:A 22.1382 
*END

*D_NET *9 0.000955468
*CONN
*P B[0] I
*I *1611:A I *D sky130_fd_sc_hd__buf_1
*CAP
1 B[0] 0.000477734
2 *1611:A 0.000477734
*RES
1 B[0] *1611:A 23.0321 
*END

*D_NET *10 0.000737858
*CONN
*P B[1] I
*I *1597:A I *D sky130_fd_sc_hd__clkbuf_4
*CAP
1 B[1] 0.000368929
2 *1597:A 0.000368929
*RES
1 B[1] *1597:A 22.4054 
*END

*D_NET *11 0.000573388
*CONN
*P B[2] I
*I *1598:A I *D sky130_fd_sc_hd__buf_2
*CAP
1 B[2] 0.000286694
2 *1598:A 0.000286694
3 *1598:A *1599:A 0
*RES
1 B[2] *1598:A 20.8518 
*END

*D_NET *12 0.00143417
*CONN
*P B[3] I
*I *1599:A I *D sky130_fd_sc_hd__buf_2
*CAP
1 B[3] 0.000717087
2 *1599:A 0.000717087
3 *1598:A *1599:A 0
*RES
1 B[3] *1599:A 27.5857 
*END

*D_NET *13 0.00102824
*CONN
*P B[4] I
*I *1600:A I *D sky130_fd_sc_hd__buf_1
*CAP
1 B[4] 0.000475021
2 *1600:A 0.000475021
3 *1600:A *282:24 7.8195e-05
*RES
1 B[4] *1600:A 23.2643 
*END

*D_NET *14 0.000891021
*CONN
*P B[5] I
*I *1601:A I *D sky130_fd_sc_hd__buf_2
*CAP
1 B[5] 0.000445511
2 *1601:A 0.000445511
*RES
1 B[5] *1601:A 22.5679 
*END

*D_NET *15 0.000549954
*CONN
*P B[6] I
*I *1602:A I *D sky130_fd_sc_hd__clkbuf_2
*CAP
1 B[6] 0.000274977
2 *1602:A 0.000274977
*RES
1 B[6] *1602:A 20.3518 
*END

*D_NET *16 0.000508572
*CONN
*P B[7] I
*I *1603:A I *D sky130_fd_sc_hd__buf_1
*CAP
1 B[7] 0.000243402
2 *1603:A 0.000243402
3 *1603:A *320:10 2.1768e-05
*RES
1 B[7] *1603:A 20.0132 
*END

*D_NET *17 0.000497966
*CONN
*P P[0] O
*I *1614:X O *D sky130_fd_sc_hd__clkbuf_4
*CAP
1 P[0] 0.000248983
2 *1614:X 0.000248983
*RES
1 *1614:X P[0] 19.9411 
*END

*D_NET *18 0.000693386
*CONN
*P P[10] O
*I *1615:X O *D sky130_fd_sc_hd__clkbuf_4
*CAP
1 P[10] 0.000314128
2 *1615:X 0.000314128
3 P[10] *337:16 6.51302e-05
*RES
1 *1615:X P[10] 19.0026 
*END

*D_NET *19 0.00160519
*CONN
*P P[11] O
*I *1616:X O *D sky130_fd_sc_hd__clkbuf_4
*CAP
1 P[11] 0.000802597
2 *1616:X 0.000802597
*RES
1 *1616:X P[11] 28.8537 
*END

*D_NET *20 0.000700258
*CONN
*P P[12] O
*I *1617:X O *D sky130_fd_sc_hd__clkbuf_4
*CAP
1 P[12] 0.000350129
2 *1617:X 0.000350129
*RES
1 *1617:X P[12] 20.6929 
*END

*D_NET *21 0.000794933
*CONN
*P P[13] O
*I *1618:X O *D sky130_fd_sc_hd__clkbuf_4
*CAP
1 P[13] 0.000397466
2 *1618:X 0.000397466
*RES
1 *1618:X P[13] 21.7643 
*END

*D_NET *22 0.000930461
*CONN
*P P[14] O
*I *1619:X O *D sky130_fd_sc_hd__buf_2
*CAP
1 P[14] 0.00046523
2 *1619:X 0.00046523
3 P[14] P[8] 0
*RES
1 *1619:X P[14] 22.2464 
*END

*D_NET *23 0.000693142
*CONN