*SPEF "ieee 1481-1999"
*DESIGN "rca"
*DATE "11:11:11 Fri 11 11, 1111"
*VENDOR "OpenRCX"
*PROGRAM "Parallel Extraction"
*VERSION "1.0"
*DESIGN_FLOW "NAME_SCOPE LOCAL" "PIN_CAP NONE"
*DIVIDER /
*DELIMITER :
*BUS_DELIMITER []
*T_UNIT 1 NS
*C_UNIT 1 PF
*R_UNIT 1 OHM
*L_UNIT 1 HENRY

*NAME_MAP
*1 A[0]
*2 A[1]
*3 A[2]
*4 A[3]
*5 A[4]
*6 A[5]
*7 A[6]
*8 A[7]
*9 B[0]
*10 B[1]
*11 B[2]
*12 B[3]
*13 B[4]
*14 B[5]
*15 B[6]
*16 B[7]
*17 SUM[0]
*18 SUM[1]
*19 SUM[2]
*20 SUM[3]
*21 SUM[4]
*22 SUM[5]
*23 SUM[6]
*24 SUM[7]
*27 _00_
*28 _01_
*29 _02_
*30 _03_
*31 _04_
*32 _05_
*33 _06_
*34 _07_
*35 _08_
*36 _09_
*37 _10_
*38 _11_
*39 _12_
*40 _13_
*41 _14_
*42 _15_
*43 _16_
*44 _17_
*45 _18_
*46 _19_
*47 _20_
*48 _21_
*49 _22_
*50 _23_
*51 _24_
*52 _25_
*53 net1
*54 net10
*55 net11
*56 net12
*57 net13
*58 net14
*59 net15
*60 net16
*61 net17
*62 net18
*63 net19
*64 net2
*65 net20
*66 net21
*67 net22
*68 net23
*69 net24
*70 net3
*71 net4
*72 net5
*73 net6
*74 net7
*75 net8
*76 net9
*77 FILLER_0_0_12
*78 FILLER_0_0_27
*79 FILLER_0_0_29
*80 FILLER_0_0_41
*81 FILLER_0_0_51
*82 FILLER_0_0_55
*83 FILLER_0_0_57
*84 FILLER_0_0_62
*85 FILLER_0_10_21
*86 FILLER_0_10_27
*87 FILLER_0_10_29
*88 FILLER_0_10_41
*89 FILLER_0_10_49
*90 FILLER_0_10_64
*91 FILLER_0_10_9
*92 FILLER_0_11_15
*93 FILLER_0_11_20
*94 FILLER_0_11_29
*95 FILLER_0_11_34
*96 FILLER_0_11_46
*97 FILLER_0_11_54
*98 FILLER_0_11_57
*99 FILLER_0_1_15
*100 FILLER_0_1_27
*101 FILLER_0_1_3
*102 FILLER_0_1_39
*103 FILLER_0_1_51
*104 FILLER_0_1_55
*105 FILLER_0_1_57
*106 FILLER_0_1_69
*107 FILLER_0_2_24
*108 FILLER_0_2_42
*109 FILLER_0_2_6
*110 FILLER_0_2_62
*111 FILLER_0_2_70
*112 FILLER_0_3_11
*113 FILLER_0_3_25
*114 FILLER_0_3_3
*115 FILLER_0_3_37
*116 FILLER_0_3_49
*117 FILLER_0_3_53
*118 FILLER_0_3_61
*119 FILLER_0_3_69
*120 FILLER_0_4_15
*121 FILLER_0_4_23
*122 FILLER_0_4_3
*123 FILLER_0_4_39
*124 FILLER_0_4_43
*125 FILLER_0_4_64
*126 FILLER_0_5_18
*127 FILLER_0_5_30
*128 FILLER_0_5_42
*129 FILLER_0_5_54
*130 FILLER_0_5_6
*131 FILLER_0_5_64
*132 FILLER_0_6_16
*133 FILLER_0_6_29
*134 FILLER_0_6_3
*135 FILLER_0_6_41
*136 FILLER_0_6_53
*137 FILLER_0_6_65
*138 FILLER_0_6_71
*139 FILLER_0_7_21
*140 FILLER_0_7_3
*141 FILLER_0_7_33
*142 FILLER_0_7_45
*143 FILLER_0_7_53
*144 FILLER_0_7_57
*145 FILLER_0_8_18
*146 FILLER_0_8_23
*147 FILLER_0_8_27
*148 FILLER_0_8_29
*149 FILLER_0_8_35
*150 FILLER_0_8_43
*151 FILLER_0_8_51
*152 FILLER_0_8_59
*153 FILLER_0_8_71
*154 FILLER_0_8_9
*155 FILLER_0_9_14
*156 FILLER_0_9_29
*157 FILLER_0_9_3
*158 FILLER_0_9_45
*159 FILLER_0_9_64
*160 PHY_0
*161 PHY_1
*162 PHY_10
*163 PHY_11
*164 PHY_12
*165 PHY_13
*166 PHY_14
*167 PHY_15
*168 PHY_16
*169 PHY_17
*170 PHY_18
*171 PHY_19
*172 PHY_2
*173 PHY_20
*174 PHY_21
*175 PHY_22
*176 PHY_23
*177 PHY_3
*178 PHY_4
*179 PHY_5
*180 PHY_6
*181 PHY_7
*182 PHY_8
*183 PHY_9
*184 TAP_24
*185 TAP_25
*186 TAP_26
*187 TAP_27
*188 TAP_28
*189 TAP_29
*190 TAP_30
*191 TAP_31
*192 TAP_32
*193 TAP_33
*194 TAP_34
*195 TAP_35
*196 TAP_36
*197 TAP_37
*198 _26_
*199 _27_
*200 _28_
*201 _29_
*202 _30_
*203 _31_
*204 _32_
*205 _33_
*206 _34_
*207 _35_
*208 _36_
*209 _37_
*210 _38_
*211 _39_
*212 _40_
*213 _41_
*214 _42_
*215 _43_
*216 _44_
*217 _45_
*218 _46_
*219 _47_
*220 _48_
*221 _49_
*222 _50_
*223 _51_
*224 _52_
*225 _53_
*226 _54_
*227 _55_
*228 _56_
*229 _57_
*230 _58_
*231 _59_
*232 input1
*233 input10
*234 input11
*235 input12
*236 input13
*237 input14
*238 input15
*239 input16
*240 input2
*241 input3
*242 input4
*243 input5
*244 input6
*245 input7
*246 input8
*247 input9
*248 output17
*249 output18
*250 output19
*251 output20
*252 output21
*253 output22
*254 output23
*255 output24

*PORTS
A[0] I
A[1] I
A[2] I
A[3] I
A[4] I
A[5] I
A[6] I
A[7] I
B[0] I
B[1] I
B[2] I
B[3] I
B[4] I
B[5] I
B[6] I
B[7] I
SUM[0] O
SUM[1] O
SUM[2] O
SUM[3] O
SUM[4] O
SUM[5] O
SUM[6] O
SUM[7] O

*D_NET *1 0.00133767
*CONN
*P A[0] I
*I *232:A I *D sky130_fd_sc_hd__dlymetal6s2s_1
*CAP
1 A[0] 0.000618803
2 *232:A 0
3 *1:13 0.000618803
4 *1:13 *7:13 0.000100061
*RES
1 A[0] *1:13 27.6771 
2 *1:13 *232:A 23 
*END

*D_NET *2 0.000504257
*CONN
*P A[1] I
*I *240:A I *D sky130_fd_sc_hd__buf_1
*CAP
1 A[1] 0.000252128
2 *240:A 0.000252128
3 *240:A *9:13 0
*RES
1 A[1] *240:A 49.1767 
*END

*D_NET *3 0.00125129
*CONN
*P A[2] I
*I *241:A I *D sky130_fd_sc_hd__clkbuf_1
*CAP
1 A[2] 0.000419331
2 *241:A 0.000419331
3 *241:A SUM[6] 0.000354342
4 *241:A *23:8 5.82853e-05
*RES
1 A[2] *241:A 49.5793 
*END

*D_NET *4 0.00242874
*CONN
*P A[3] I
*I *242:A I *D sky130_fd_sc_hd__buf_1
*CAP
1 A[3] 0.000990227
2 *242:A 0
3 *4:15 0.000990227
4 *4:15 SUM[3] 0
5 *4:15 *53:12 0.000153327
6 *4:15 *71:10 0.000102092
7 *4:15 *74:16 0.000192871
*RES
1 A[3] *4:15 37.1944 
2 *4:15 *242:A 23 
*END

*D_NET *5 0.000485458
*CONN
*P A[4] I
*I *243:A I *D sky130_fd_sc_hd__buf_1
*CAP
1 A[4] 0.000242729
2 *243:A 0.000242729
3 *243:A SUM[1] 0
*RES
1 A[4] *243:A 49.1975 
*END

*D_NET *6 0.00125372
*CONN
*P A[5] I
*I *244:A I *D sky130_fd_sc_hd__buf_1
*CAP
1 A[5] 0.000452919
2 *244:A 0
3 *6:15 0.000452919
4 *6:15 *11:9 0.000144494
5 *6:15 *15:15 8.49519e-05
6 *6:15 *55:8 5.69371e-05
7 *6:15 *59:12 6.14981e-05
*RES
1 A[5] *6:15 30.4262 
2 *6:15 *244:A 23 
*END

*D_NET *7 0.00239474
*CONN
*P A[6] I
*I *245:A I *D sky130_fd_sc_hd__buf_1
*CAP
1 A[6] 0.00114734
2 *245:A 0
3 *7:13 0.00114734
4 *1:13 *7:13 0.000100061
*RES
1 A[6] *7:13 38.1586 
2 *7:13 *245:A 23 
*END

*D_NET *8 0.00134988
*CONN
*P A[7] I
*I *246:A I *D sky130_fd_sc_hd__clkbuf_1
*CAP
1 A[7] 0.000345775
2 *246:A 0
3 *8:15 0.000345775
4 *8:15 *15:15 0.000658327
*RES
1 A[7] *8:15 27.1179 
2 *8:15 *246:A 23 
*END

*D_NET *9 0.000664804
*CONN
*P B[0] I
*I *247:A I *D sky130_fd_sc_hd__buf_1
*CAP
1 B[0] 0.000332402
2 *247:A 0
3 *9:13 0.000332402
4 *240:A *9:13 0
*RES
1 B[0] *9:13 27.9375 
2 *9:13 *247:A 23 
*END

*D_NET *10 0.00124647
*CONN
*P B[1] I
*I *233:A I *D sky130_fd_sc_hd__clkbuf_1
*CAP
1 B[1] 0.00050932
2 *233:A 0
3 *10:15 0.00050932
4 *10:15 *236:A 5.50106e-05
5 *10:15 *12:11 0.000172824
*RES
1 B[1] *10:15 32.681 
2 *10:15 *233:A 23 
*END

*D_NET *11 0.00136507
*CONN
*P B[2] I
*I *234:A I *D sky130_fd_sc_hd__buf_1
*CAP
1 B[2] 0.00061029
2 *234:A 0
3 *11:9 0.00061029
4 *6:15 *11:9 0.000144494
*RES
1 B[2] *11:9 27.6564 
2 *11:9 *234:A 23 
*END

*D_NET *12 0.00201211
*CONN
*P B[3] I
*I *235:A I *D sky130_fd_sc_hd__buf_1
*CAP
1 B[3] 0.000875995
2 *235:A 0
3 *12:11 0.000875995
4 *12:11 *236:A 5.50106e-05
5 *12:11 *54:8 3.22879e-05
6 *10:15 *12:11 0.000172824
*RES
1 B[3] *12:11 34.6993 
2 *12:11 *235:A 23 
*END

*D_NET *13 0.000963684
*CONN
*P B[4] I
*I *236:A I *D sky130_fd_sc_hd__buf_1
*CAP
1 B[4] 0.000426831
2 *236:A 0.000426831
3 *10:15 *236:A 5.50106e-05
4 *12:11 *236:A 5.50106e-05
*RES
1 B[4] *236:A 47.3214 
*END

*D_NET *14 0.00107781
*CONN
*P B[5] I
*I *237:A I *D sky130_fd_sc_hd__buf_1
*CAP
1 B[5] 0.000538904
2 *237:A 0.000538904
*RES
1 B[5] *237:A 49.5793 
*END

*D_NET *15 0.00239265
*CONN
*P B[6] I
*I *238:A I *D sky130_fd_sc_hd__buf_1
*CAP
1 B[6] 0.000798724
2 *238:A 0
3 *15:15 0.000798724
4 *15:15 *59:12 5.19243e-05
5 *6:15 *15:15 8.49519e-05
6 *8:15 *15:15 0.000658327
*RES
1 B[6] *15:15 36.3659 
2 *15:15 *238:A 23 
*END

*D_NET *16 0.00085858
*CONN
*P B[7] I
*I *239:A I *D sky130_fd_sc_hd__clkbuf_1
*CAP
1 B[7] 0.00042929
2 *239:A 0.00042929
*RES
1 B[7] *239:A 47.4664 
*END

*D_NET *17 0.00151621
*CONN
*P SUM[0] O
*I *248:X O *D sky130_fd_sc_hd__clkbuf_4
*CAP
1 SUM[0] 0.000472587
2 *248:X 0.000285517
3 *17:8 0.000758104
4 SUM[0] *19:8 0
*RES
1 *248:X *17:8 42.4329 
2 *17:8 SUM[0] 10.1086 
*END

*D_NET *18 0.000718076
*CONN
*P SUM[1] O
*I *249:X O *D sky130_fd_sc_hd__buf_2
*CAP
1 SUM[1] 0.000359038
2 *249:X 0.000359038
3 *243:A SUM[1] 0
*RES
1 *249:X SUM[1] 49.4905 
*END

*D_NET *19 0.001051
*CONN
*P SUM[2] O
*I *250:X O *D sky130_fd_sc_hd__clkbuf_4
*CAP
1 SUM[2] 0.000282175
2 *250:X 0.000218842
3 *19:8 0.000501017
4 SUM[2] SUM[6] 0
5 *19:8 *61:8 4.89706e-05
6 SUM[0] *19:8 0
*RES
1 *250:X *19:8 42.5468 
2 *19:8 SUM[2] 8.84373 
*END

*D_NET *20 0.00202276
*CONN
*P SUM[3] O
*I *251:X O *D sky130_fd_sc_hd__clkbuf_4
*CAP
1 SUM[3] 0.000514576
2 *251:X 0.000334319
3 *20:12 0.000848895
4 *20:12 *53:12 0.000324968
5 *4:15 SUM[3] 0
*RES
1 *251:X *20:12 43.8311 
2 *20:12 SUM[3] 11.3411 
*END

*D_NET *21 0.00120429
*CONN
*P SUM[4] O
*I *252:X O *D sky130_fd_sc_hd__clkbuf_4
*CAP
1 SUM[4] 9.33368e-05
2 *252:X 0.000480992
3 *21:16 0.000574329
4 *21:16 *56:10 5.56356e-05
5 *21:16 *66:20 0
*RES
1 *252:X *21:16 47.8496 
2 *21:16 SUM[4] 2.18536 
*END

*D_NET *22 0.000554128
*CONN
*P SUM[5] O
*I *253:X O *D sky130_fd_sc_hd__clkbuf_4
*CAP
1 SUM[5] 0.000277064
2 *253:X 0.000277064
*RES
1 *253:X SUM[5] 49.5289 
*END

*D_NET *23 0.00258039
*CONN
*P SUM[6] O
*I *254:X O *D sky130_fd_sc_hd__buf_4
*CAP
1 SUM[6] 0.000920261
2 *254:X 0.000163619
3 *23:8 0.00108388
4 SUM[2] SUM[6] 0
5 *241:A SUM[6] 0.000354342
6 *241:A *23:8 5.82853e-05
*RES
1 *254:X *23:8 41.0036 
2 *23:8 SUM[6] 19.8748 
*END

*D_NET *24 0.000782437
*CONN
*P SUM[7] O
*I *255:X O *D sky130_fd_sc_hd__buf_2
*CAP
1 SUM[7] 0.000119921
2 *255:X 0.000271297
3 *24:12 0.000391219
4 *24:12 *55:14 0
*RES
1 *255:X *24:12 49.7804 
2 *24:12 SUM[7] 0.4144 
*END

*D_NET *27 0.00130698
*CONN
*I *202:B I *D sky130_fd_sc_hd__and3_1
*I *201:A1 I *D sky130_fd_sc_hd__a21oi_1
*I *199:X O *D sky130_fd_sc_hd__a21o_1
*CAP
1 *202:B 0.000200933
2 *201:A1 0.000321662
3 *199:X 0
4 *27:4 0.000522595
5 *201:A1 *199:A1 2.43944e-05
6 *201:A1 *199:B1 2.193e-05
7 *201:A1 *28:14 2.92911e-06
8 *201:A1 *29:12 9.98069e-06
9 *201:A1 *53:26 9.66585e-05
10 *202:B *28:31 1.24362e-05
11 *202:B *29:12 9.34599e-05
*RES
1 *199:X *27:4 23 
2 *27:4 *201:A1 26.9564 
3 *27:4 *202:B 26.48 
*END

*D_NET *28 0.00205032
*CONN
*I *202:C I *D sky130_fd_sc_hd__and3_1
*I *201:A2 I *D sky130_fd_sc_hd__a21oi_1
*I *200:Y O *D sky130_fd_sc_hd__nand3_1
*CAP
1 *202:C 0
2 *201:A2 0
3 *200:Y 0
4 *28:31 0.000327802
5 *28:14 0.000319921
6 *28:4 0.000647722
7 *28:14 *199:A1 3.93413e-05
8 *28:14 *29:12 9.41704e-05
9 *28:14 *53:32 0.000110258
10 *28:14 *64:25 0.000108129
11 *28:31 *200:C 1.84917e-05
12 *28:31 *222:A 5.29205e-05
13 *28:31 *54:18 0.000222024
14 *28:31 *67:10 9.41704e-05
15 *201:A1 *28:14 2.92911e-06
16 *202:B *28:31 1.24362e-05
*RES
1 *200:Y *28:4 23 
2 *28:4 *28:14 35.2821 
3 *28:14 *201:A2 23 
4 *28:4 *28:31 36.815 
5 *28:31 *202:C 23 
*END

*D_NET *29 0.00146439
*CONN
*I *203:A I *D sky130_fd_sc_hd__nor2_1
*I *201:Y O *D sky130_fd_sc_hd__a21oi_1
*CAP
1 *203:A 0.00013073
2 *201:Y 0.000285436
3 *29:12 0.000416166
4 *203:A *203:B 1.24376e-05
5 *203:A *204:B 1.84917e-05
6 *203:A *204:C 3.39025e-05
7 *203:A *31:10 5.07601e-05
8 *29:12 *199:A1 9.66668e-05
9 *29:12 *199:B1 4.51593e-05
10 *29:12 *53:26 9.8592e-06
11 *29:12 *54:18 5.75756e-06
12 *29:12 *68:16 0.000161414
13 *201:A1 *29:12 9.98069e-06
14 *202:B *29:12 9.34599e-05
15 *28:14 *29:12 9.41704e-05
*RES
1 *201:Y *29:12 43.9864 
2 *29:12 *203:A 41.0036 
*END

*D_NET *30 0.00140955
*CONN
*I *205:C I *D sky130_fd_sc_hd__or3_1
*I *206:A2 I *D sky130_fd_sc_hd__o21ai_1
*I *203:B I *D sky130_fd_sc_hd__nor2_1
*I *202:X O *D sky130_fd_sc_hd__and3_1
*CAP
1 *205:C 0.000104189
2 *206:A2 0
3 *203:B 8.96894e-05
4 *202:X 8.24714e-05
5 *30:27 0.000301904
6 *30:8 0.000369876
7 *203:B *62:8 5.82853e-05
8 *205:C *205:A 5.82853e-05
9 *205:C *206:A1 7.65052e-05
10 *205:C *33:6 5.82853e-05
11 *205:C *70:12 0.000100486
12 *30:27 *206:A1 1.13812e-05
13 *30:27 *31:10 8.57577e-05
14 *203:A *203:B 1.24376e-05
*RES
1 *202:X *30:8 39.2014 
2 *30:8 *203:B 40.0921 
3 *30:8 *30:27 3.72857 
4 *30:27 *206:A2 38 
5 *30:27 *205:C 40.7757 
*END

*D_NET *31 0.00118293
*CONN
*I *206:A1 I *D sky130_fd_sc_hd__o21ai_1
*I *205:B I *D sky130_fd_sc_hd__or3_1
*I *204:X O *D sky130_fd_sc_hd__and3_1
*CAP
1 *206:A1 5.6073e-05
2 *205:B 0.000135774
3 *204:X 0.000176027
4 *31:10 0.000367874
5 *205:B *205:A 4.46854e-05
6 *205:B *70:12 0.000141352
7 *206:A1 *70:8 3.67392e-05
8 *203:A *31:10 5.07601e-05
9 *205:C *206:A1 7.65052e-05
10 *30:27 *206:A1 1.13812e-05
11 *30:27 *31:10 8.57577e-05
*RES
1 *204:X *31:10 40.7757 
2 *31:10 *205:B 41.045 
3 *31:10 *206:A1 39.2014 
*END

*D_NET *32 0.00109075
*CONN
*I *209:A2 I *D sky130_fd_sc_hd__a21bo_1
*I *207:A I *D sky130_fd_sc_hd__and2_1
*I *205:X O *D sky130_fd_sc_hd__or3_1
*CAP
1 *209:A2 0.000248099
2 *207:A 0
3 *205:X 0.000104442
4 *32:8 0.00035254
5 *209:A2 *207:B 1.12349e-05
6 *209:A2 *209:B1_N 0.000119565
7 *209:A2 *33:6 4.96303e-05
8 *209:A2 *34:10 4.50218e-05
9 *209:A2 *55:26 5.56356e-05
10 *32:8 *33:6 0.000104578
*RES
1 *205:X *32:8 25.5479 
2 *32:8 *207:A 23 
3 *32:8 *209:A2 28.5514 
*END

*D_NET *33 0.00109419
*CONN
*I *209:B1_N I *D sky130_fd_sc_hd__a21bo_1
*I *207:B I *D sky130_fd_sc_hd__and2_1
*I *206:Y O *D sky130_fd_sc_hd__o21ai_1
*CAP
1 *209:B1_N 6.58948e-05
2 *207:B 2.07933e-05
3 *206:Y 0.000276256
4 *33:6 0.000362944
5 *33:6 *205:A 2.50118e-05
6 *205:C *33:6 5.82853e-05
7 *209:A2 *207:B 1.12349e-05
8 *209:A2 *209:B1_N 0.000119565
9 *209:A2 *33:6 4.96303e-05
10 *32:8 *33:6 0.000104578
*RES
1 *206:Y *33:6 28.3857 
2 *33:6 *207:B 23.4971 
3 *33:6 *209:B1_N 24.5743 
*END

*D_NET *34 0.00067264
*CONN
*I *208:B I *D sky130_fd_sc_hd__xor2_1
*I *207:X O *D sky130_fd_sc_hd__and2_1
*CAP
1 *208:B 0
2 *207:X 0.000172781
3 *34:10 0.000172781
4 *34:10 *55:26 0.000141029
5 *34:10 *58:12 0.000141029
6 *209:A2 *34:10 4.50218e-05
*RES
1 *207:X *34:10 41.48 
2 *34:10 *208:B 38 
*END

*D_NET *35 0.00140706
*CONN
*I *212:B I *D sky130_fd_sc_hd__and2_1
*I *210:B I *D sky130_fd_sc_hd__xor2_1
*I *209:X O *D sky130_fd_sc_hd__a21bo_1
*CAP
1 *212:B 0
2 *210:B 0
3 *209:X 0.000160832
4 *35:21 0.000285431
5 *35:6 0.000446263
6 *35:21 *210:A 0.000135037
7 *35:21 *211:A 2.02872e-05
8 *35:21 *211:B 1.24376e-05
9 *35:21 *212:A 0.000191419
10 *35:21 *36:14 8.34138e-05
11 *35:21 *38:12 1.39826e-05
12 *35:21 *55:18 5.79559e-05
*RES
1 *209:X *35:6 26.0036 
2 *35:6 *210:B 23 
3 *35:6 *35:21 36.1107 
4 *35:21 *212:B 23 
*END

*D_NET *36 0.0012779
*CONN
*I *211:B I *D sky130_fd_sc_hd__xor2_1
*I *213:A2 I *D sky130_fd_sc_hd__a21oi_2
*I *210:X O *D sky130_fd_sc_hd__xor2_1
*CAP
1 *211:B 0.000112306
2 *213:A2 0
3 *210:X 0
4 *36:14 0.000332871
5 *36:4 0.000445177
6 *211:B *211:A 4.64428e-05
7 *36:14 *213:A1 0.000158098
8 *36:14 *56:14 8.71559e-05
9 *35:21 *211:B 1.24376e-05
10 *35:21 *36:14 8.34138e-05
*RES
1 *210:X *36:4 23 
2 *36:4 *36:14 35.8621 
3 *36:14 *213:A2 23 
4 *36:4 *211:B 25.5686 
*END

*D_NET *37 0.00115283
*CONN
*I *213:B1 I *D sky130_fd_sc_hd__a21oi_2
*I *212:X O *D sky130_fd_sc_hd__and2_1
*CAP
1 *213:B1 3.27258e-05
2 *212:X 0.000311415
3 *37:10 0.000344141
4 *213:B1 *53:12 5.40241e-05
5 *213:B1 *71:10 5.22448e-05
6 *37:10 *55:18 1.41244e-05
7 *37:10 *74:16 0.000344152
*RES
1 *212:X *37:10 43.3443 
2 *37:10 *213:B1 39.0979 
*END

*D_NET *38 0.00619468
*CONN
*I *216:A_N I *D sky130_fd_sc_hd__and2b_1
*I *214:B I *D sky130_fd_sc_hd__xnor2_1
*I *213:Y O *D sky130_fd_sc_hd__a21oi_2
*CAP
1 *216:A_N 0
2 *214:B 3.38339e-05
3 *213:Y 0
4 *38:14 0.000572303
5 *38:12 0.00123246
6 *38:6 0.000693992
7 *214:B *214:A 0.00010018
8 *38:12 *212:A 0.000217534
9 *38:12 *213:A1 0.000113244
10 *38:12 *226:A 1.14154e-05
11 *38:12 *50:10 0.000264981
12 *38:12 *56:14 0.00128578
13 *38:12 *71:10 0.000127662
14 *38:14 *214:A 0.000173898
15 *38:14 *226:A 2.93845e-05
16 *38:14 *72:14 0.00132403
17 *35:21 *38:12 1.39826e-05
*RES
1 *213:Y *38:6 38 
2 *38:6 *38:12 34.3057 
3 *38:12 *38:14 16.3436 
4 *38:14 *214:B 24.0979 
5 *38:14 *216:A_N 23 
*END

*D_NET *39 0.000600449
*CONN
*I *217:A2 I *D sky130_fd_sc_hd__a21oi_2
*I *215:B I *D sky130_fd_sc_hd__xor2_1
*I *214:Y O *D sky130_fd_sc_hd__xnor2_1
*CAP
1 *217:A2 8.02799e-05
2 *215:B 2.34823e-05
3 *214:Y 7.09201e-05
4 *39:12 0.000127244
5 *39:8 9.44023e-05
6 *217:A2 *217:A1 0.00010655
7 *217:A2 *66:12 5.67058e-05
8 *39:8 *64:10 4.08641e-05
*RES
1 *214:Y *39:8 39.2014 
2 *39:8 *39:12 15.4971 
3 *39:12 *215:B 23.4971 
4 *39:12 *217:A2 25.5479 
*END

*D_NET *40 0.000338406
*CONN
*I *217:B1 I *D sky130_fd_sc_hd__a21oi_2
*I *216:X O *D sky130_fd_sc_hd__and2b_1
*CAP
1 *217:B1 5.08812e-05
2 *216:X 7.82472e-05
3 *40:8 0.000129128
4 *217:B1 *41:8 5.67058e-05
5 *217:B1 *66:12 2.34437e-05
6 *40:8 *42:8 0
*RES
1 *216:X *40:8 39.2014 
2 *40:8 *217:B1 39.4707 
*END

*D_NET *41 0.00131694
*CONN
*I *223:A I *D sky130_fd_sc_hd__or2b_1
*I *218:B I *D sky130_fd_sc_hd__xnor2_1
*I *217:Y O *D sky130_fd_sc_hd__a21oi_2
*CAP
1 *223:A 0.000206036
2 *218:B 0
3 *217:Y 0.00015936
4 *41:8 0.000365397
5 *223:A *218:A 5.25626e-05
6 *223:A *66:12 7.53303e-06
7 *223:A *73:20 2.07484e-05
8 *41:8 *66:12 0.000448601
9 *217:B1 *41:8 5.67058e-05
*RES
1 *217:Y *41:8 28.4064 
2 *41:8 *218:B 23 
3 *41:8 *223:A 26.3764 
*END

*D_NET *42 0.00147447
*CONN
*I *219:B I *D sky130_fd_sc_hd__or2_1
*I *220:A I *D sky130_fd_sc_hd__nand2_1
*I *218:Y O *D sky130_fd_sc_hd__xnor2_1
*CAP
1 *219:B 0.000196919
2 *220:A 9.31604e-05
3 *218:Y 0.000263046
4 *42:10 0.00029008
5 *42:8 0.000263046
6 *219:B *219:A 5.79559e-05
7 *219:B *221:A 5.79559e-05
8 *219:B *221:B 0
9 *219:B *228:A2 0
10 *219:B *44:6 2.93845e-05
11 *219:B *44:15 0.000108488
12 *220:A *220:B 6.32866e-06
13 *220:A *221:B 4.28848e-06
14 *220:A *44:6 0.000103816
15 *40:8 *42:8 0
*RES
1 *218:Y *42:8 42.3707 
2 *42:8 *42:10 15 
3 *42:10 *220:A 25.3821 
4 *42:10 *219:B 27.4536 
*END

*D_NET *43 0.000131792
*CONN
*I *221:A I *D sky130_fd_sc_hd__and2_1
*I *219:X O *D sky130_fd_sc_hd__or2_1
*CAP
1 *221:A 7.94007e-06
2 *219:X 7.94007e-06
3 *221:A *44:15 5.79559e-05
4 *219:B *221:A 5.79559e-05
*RES
1 *219:X *221:A 46.6214 
*END

*D_NET *44 0.00349825
*CONN
*I *225:A2 I *D sky130_fd_sc_hd__a21bo_1
*I *224:C I *D sky130_fd_sc_hd__nand3b_1
*I *228:A2 I *D sky130_fd_sc_hd__a21boi_1
*I *221:B I *D sky130_fd_sc_hd__and2_1
*I *220:Y O *D sky130_fd_sc_hd__nand2_1
*CAP
1 *225:A2 3.26001e-05
2 *224:C 0.000492978
3 *228:A2 1.73539e-05
4 *221:B 2.16016e-05
5 *220:Y 5.28626e-05
6 *44:24 0.000606891
7 *44:15 0.000324808
8 *44:6 0.000300604
9 *221:B *220:B 0
10 *224:C *224:A_N 2.14462e-05
11 *224:C *224:B 2.07402e-05
12 *224:C *228:B1_N 0.000240628
13 *224:C *74:18 2.36123e-05
14 *225:A2 *228:B1_N 0.000143277
15 *225:A2 *46:23 0.000188927
16 *44:6 *220:B 0.000230604
17 *44:15 *219:A 5.56279e-05
18 *44:15 *220:B 0.000277167
19 *44:24 *46:23 0.000142585
20 *219:B *221:B 0
21 *219:B *228:A2 0
22 *219:B *44:6 2.93845e-05
23 *219:B *44:15 0.000108488
24 *220:A *221:B 4.28848e-06
25 *220:A *44:6 0.000103816
26 *221:A *44:15 5.79559e-05
*RES
1 *220:Y *44:6 25.5271 
2 *44:6 *221:B 23.4971 
3 *44:6 *44:15 6.33857 
4 *44:15 *228:A2 23.4971 
5 *44:15 *44:24 2.05071 
6 *44:24 *224:C 31.2029 
7 *44:24 *225:A2 25.0507 
*END

*D_NET *45 0.00128508
*CONN
*I *222:A I *D sky130_fd_sc_hd__clkbuf_1
*I *221:X O *D sky130_fd_sc_hd__and2_1
*CAP
1 *222:A 0.000346439
2 *221:X 0.000254868
3 *45:8 0.000601307
4 *222:A *54:18 2.95423e-05
5 *28:31 *222:A 5.29205e-05
*RES
1 *221:X *45:8 42.7229 
2 *45:8 *222:A 44.815 
*END

*D_NET *46 0.00268054
*CONN
*I *224:B I *D sky130_fd_sc_hd__nand3b_1
*I *225:A1 I *D sky130_fd_sc_hd__a21bo_1
*I *228:A1 I *D sky130_fd_sc_hd__a21boi_1
*I *223:X O *D sky130_fd_sc_hd__or2b_1
*CAP
1 *224:B 0.000263259
2 *225:A1 2.342e-05
3 *228:A1 0
4 *223:X 0.000377689
5 *46:23 0.000483849
6 *46:10 0.00057486
7 *224:B *224:A_N 2.64616e-05
8 *224:B *228:B1_N 9.28372e-05
9 *224:B *47:10 3.7122e-06
10 *224:B *50:10 5.3304e-05
11 *224:B *74:18 2.93335e-05
12 *46:10 *230:B 0.000106277
13 *46:23 *228:B1_N 1.96865e-05
14 *46:23 *50:10 0.000273601
15 *46:23 *58:12 0
16 *224:C *224:B 2.07402e-05
17 *225:A2 *46:23 0.000188927
18 *44:24 *46:23 0.000142585
*RES
1 *223:X *46:10 44.0693 
2 *46:10 *228:A1 38 
3 *46:10 *46:23 20.51 
4 *46:23 *225:A1 23.4971 
5 *46:23 *224:B 28.0957 
*END

*D_NET *47 0.00150325
*CONN
*I *229:A2 I *D sky130_fd_sc_hd__a21oi_1
*I *226:A I *D sky130_fd_sc_hd__nand2_1
*I *224:Y O *D sky130_fd_sc_hd__nand3b_1
*CAP
1 *229:A2 3.74016e-05
2 *226:A 0.00012876
3 *224:Y 0.000140151
4 *47:14 0.000189644
5 *47:10 0.000163633
6 *226:A *226:B 1.8788e-05
7 *226:A *229:B1 0.000144501
8 *226:A *49:10 0.000355345
9 *226:A *72:14 5.14681e-05
10 *229:A2 *72:14 2.93747e-05
11 *47:10 *255:A 2.93431e-05
12 *47:10 *49:10 8.4047e-05
13 *47:10 *69:14 8.62783e-05
14 *224:B *47:10 3.7122e-06
15 *38:12 *226:A 1.14154e-05
16 *38:14 *226:A 2.93845e-05
*RES
1 *224:Y *47:10 40.2993 
2 *47:10 *47:14 15.4971 
3 *47:14 *226:A 27.93 
4 *47:14 *229:A2 24.1186 
*END

*D_NET *48 0.000271346
*CONN
*I *226:B I *D sky130_fd_sc_hd__nand2_1
*I *225:X O *D sky130_fd_sc_hd__a21bo_1
*CAP
1 *226:B 3.34115e-05
2 *225:X 7.29232e-05
3 *48:8 0.000106335
4 *48:8 *56:14 3.98887e-05
5 *226:A *226:B 1.8788e-05
*RES
1 *225:X *48:8 39.2014 
2 *48:8 *226:B 38.8493 
*END

*D_NET *49 0.00186986
*CONN
*I *227:B I *D sky130_fd_sc_hd__xnor2_1
*I *226:Y O *D sky130_fd_sc_hd__nand2_1
*CAP
1 *227:B 0
2 *226:Y 0.000529403
3 *49:10 0.000529403
4 *49:10 *227:A 0.000343168
5 *49:10 *69:14 2.84912e-05
6 *49:10 *72:14 0
7 *226:A *49:10 0.000355345
8 *47:10 *49:10 8.4047e-05
*RES
1 *226:Y *49:10 46.6793 
2 *49:10 *227:B 38 
*END

*D_NET *50 0.00171191
*CONN
*I *229:B1 I *D sky130_fd_sc_hd__a21oi_1
*I *228:Y O *D sky130_fd_sc_hd__a21boi_1
*CAP
1 *229:B1 2.88183e-05
2 *228:Y 0.000418148
3 *50:10 0.000446966
4 *229:B1 *72:14 8.15864e-05
5 *224:B *50:10 5.3304e-05
6 *226:A *229:B1 0.000144501
7 *38:12 *50:10 0.000264981
8 *46:23 *50:10 0.000273601
*RES
1 *228:Y *50:10 45.1464 
2 *50:10 *229:B1 39.5743 
*END

*D_NET *51 0.000289853
*CONN
*I *231:A I *D sky130_fd_sc_hd__xnor2_1
*I *229:Y O *D sky130_fd_sc_hd__a21oi_1
*CAP
1 *231:A 5.57176e-05
2 *229:Y 6.92646e-05
3 *51:8 0.000124982
4 *51:8 *56:14 0
5 *51:8 *59:14 3.98887e-05
*RES
1 *229:Y *51:8 39.2014 
2 *51:8 *231:A 39.2014 
*END

*D_NET *52 0.000140312
*CONN
*I *231:B I *D sky130_fd_sc_hd__xnor2_1
*I *230:X O *D sky130_fd_sc_hd__xor2_1
*CAP
1 *231:B 4.1708e-05
2 *230:X 4.1708e-05
3 *231:B *73:20 5.68958e-05
*RES
1 *230:X *231:B 47.0979 
*END

*D_NET *53 0.00671032
*CONN
*I *198:B I *D sky130_fd_sc_hd__xor2_1
*I *204:B I *D sky130_fd_sc_hd__and3_1
*I *199:A2 I *D sky130_fd_sc_hd__a21o_1
*I *200:B I *D sky130_fd_sc_hd__nand3_1
*I *232:X O *D sky130_fd_sc_hd__dlymetal6s2s_1
*CAP
1 *198:B 0
2 *204:B 0.000134275
3 *199:A2 0
4 *200:B 0
5 *232:X 0.000124622
6 *53:32 0.000113182
7 *53:26 0.000272019
8 *53:18 0.000345357
9 *53:16 0.000189036
10 *53:12 0.00155833
11 *53:8 0.00154616
12 *204:B *204:A 1.05235e-05
13 *204:B *204:C 2.03764e-06
14 *53:12 *213:A1 2.95526e-05
15 *53:12 *63:18 0.000330615
16 *53:12 *71:10 4.31873e-05
17 *53:16 *68:16 0.000133343
18 *53:16 *76:43 2.76401e-05
19 *53:18 *68:16 6.68378e-05
20 *53:18 *76:43 0.000131785
21 *53:26 *199:A1 4.32987e-05
22 *53:26 *199:B1 1.35999e-05
23 *53:26 *204:C 0.000101239
24 *53:26 *68:16 0.000225809
25 *53:26 *76:43 0.000119659
26 *53:32 *201:B1 0.000265559
27 *53:32 *204:C 4.89938e-05
28 *53:32 *64:10 1.13812e-05
29 *53:32 *64:25 5.46958e-05
30 *201:A1 *53:26 9.66585e-05
31 *203:A *204:B 1.84917e-05
32 *213:B1 *53:12 5.40241e-05
33 *4:15 *53:12 0.000153327
34 *20:12 *53:12 0.000324968
35 *28:14 *53:32 0.000110258
36 *29:12 *53:26 9.8592e-06
*RES
1 *232:X *53:8 40.2579 
2 *53:8 *53:12 41.825 
3 *53:12 *53:16 18.6664 
4 *53:16 *53:18 1.90571 
5 *53:18 *53:26 19.9093 
6 *53:26 *53:32 33.6664 
7 *53:32 *200:B 23 
8 *53:26 *199:A2 23 
9 *53:18 *204:B 39.5743 
10 *53:16 *198:B 38 
*END

*D_NET *54 0.0039933
*CONN
*I *201:B1 I *D sky130_fd_sc_hd__a21oi_1
*I *202:A I *D sky130_fd_sc_hd__and3_1
*I *233:X O *D sky130_fd_sc_hd__clkbuf_1
*CAP
1 *201:B1 0.00012195
2 *202:A 0
3 *233:X 4.00127e-05
4 *54:18 0.000478274
5 *54:10 0.0012892
6 *54:8 0.000728989
7 *201:B1 *64:10 1.16551e-05
8 *201:B1 *76:18 0.000241899
9 *201:B1 *76:37 1.13812e-05
10 *54:10 *57:8 0
11 *54:10 *64:10 0.000363533
12 *54:18 *200:A 6.17437e-06
13 *54:18 *200:C 5.58003e-05
14 *54:18 *67:10 6.00212e-06
15 *54:18 *68:16 8.32592e-05
16 *222:A *54:18 2.95423e-05
17 *12:11 *54:8 3.22879e-05
18 *28:31 *54:18 0.000222024
19 *29:12 *54:18 5.75756e-06
20 *53:32 *201:B1 0.000265559
*RES
1 *233:X *54:8 38.6214 
2 *54:8 *54:10 15.2871 
3 *54:10 *54:18 37.8507 
4 *54:18 *202:A 38 
5 *54:10 *201:B1 42.0186 
*END

*D_NET *55 0.00586028
*CONN
*I *208:A I *D sky130_fd_sc_hd__xor2_1
*I *209:A1 I *D sky130_fd_sc_hd__a21bo_1
*I *234:X O *D sky130_fd_sc_hd__buf_1
*CAP
1 *208:A 0
2 *209:A1 0
3 *234:X 7.08409e-05
4 *55:26 0.000153079
5 *55:18 0.000599527
6 *55:14 0.00148077
7 *55:8 0.00110516
8 *55:14 *62:8 3.86731e-05
9 *55:14 *62:14 1.13812e-05
10 *55:14 *69:14 0
11 *55:14 *72:14 0.000836973
12 *55:14 *73:10 0
13 *55:18 *62:8 0.00119723
14 *55:26 *58:12 4.09597e-05
15 *209:A2 *55:26 5.56356e-05
16 *6:15 *55:8 5.69371e-05
17 *24:12 *55:14 0
18 *34:10 *55:26 0.000141029
19 *35:21 *55:18 5.79559e-05
20 *37:10 *55:18 1.41244e-05
*RES
1 *234:X *55:8 39.0979 
2 *55:8 *55:14 37.1229 
3 *55:14 *55:18 13.5057 
4 *55:18 *55:26 33.5836 
5 *55:26 *209:A1 23 
6 *55:18 *208:A 23 
*END

*D_NET *56 0.00803668
*CONN
*I *213:A1 I *D sky130_fd_sc_hd__a21oi_2
*I *211:A I *D sky130_fd_sc_hd__xor2_1
*I *235:X O *D sky130_fd_sc_hd__buf_1
*CAP
1 *213:A1 0.000101251
2 *211:A 0.000233684
3 *235:X 0.00106724
4 *56:14 0.00144544
5 *56:10 0.00217774
6 *211:A *210:A 9.41704e-05
7 *56:10 *60:10 0.000581545
8 *56:10 *66:20 0.000146986
9 *56:14 *59:14 0
10 *56:14 *75:10 0.000352538
11 *211:B *211:A 4.64428e-05
12 *21:16 *56:10 5.56356e-05
13 *35:21 *211:A 2.02872e-05
14 *36:14 *213:A1 0.000158098
15 *36:14 *56:14 8.71559e-05
16 *38:12 *213:A1 0.000113244
17 *38:12 *56:14 0.00128578
18 *48:8 *56:14 3.98887e-05
19 *51:8 *56:14 0
20 *53:12 *213:A1 2.95526e-05
*RES
1 *235:X *56:10 43.3207 
2 *56:10 *56:14 40.1471 
3 *56:14 *211:A 41.9771 
4 *56:14 *213:A1 40.8793 
*END

*D_NET *57 0.00135817
*CONN
*I *217:A1 I *D sky130_fd_sc_hd__a21oi_2
*I *215:A I *D sky130_fd_sc_hd__xor2_1
*I *236:X O *D sky130_fd_sc_hd__buf_1
*CAP
1 *217:A1 0.000132911
2 *215:A 0
3 *236:X 0.000256761
4 *57:12 0.000300238
5 *57:8 0.000424089
6 *217:A1 *66:12 3.53115e-05
7 *57:12 *64:8 0.000102313
8 *217:A2 *217:A1 0.00010655
9 *54:10 *57:8 0
*RES
1 *236:X *57:8 42.7229 
2 *57:8 *57:12 18.48 
3 *57:12 *215:A 23 
4 *57:12 *217:A1 26.48 
*END

*D_NET *58 0.00389203
*CONN
*I *220:B I *D sky130_fd_sc_hd__nand2_1
*I *219:A I *D sky130_fd_sc_hd__or2_1
*I *237:X O *D sky130_fd_sc_hd__buf_1
*CAP
1 *220:B 0.000307745
2 *219:A 6.0077e-05
3 *237:X 0.000159612
4 *58:12 0.00138157
5 *58:8 0.00117336
6 *219:B *219:A 5.79559e-05
7 *220:A *220:B 6.32866e-06
8 *221:B *220:B 0
9 *34:10 *58:12 0.000141029
10 *44:6 *220:B 0.000230604
11 *44:15 *219:A 5.56279e-05
12 *44:15 *220:B 0.000277167
13 *46:23 *58:12 0
14 *55:26 *58:12 4.09597e-05
*RES
1 *237:X *58:8 40.5271 
2 *58:8 *58:12 19.6061 
3 *58:12 *219:A 39.2946 
4 *58:12 *220:B 45.0325 
*END

*D_NET *59 0.00302313
*CONN
*I *227:A I *D sky130_fd_sc_hd__xnor2_1
*I *229:A1 I *D sky130_fd_sc_hd__a21oi_1
*I *238:X O *D sky130_fd_sc_hd__buf_1
*CAP
1 *227:A 0.000298182
2 *229:A1 0
3 *238:X 0.000171244
4 *59:14 0.000727156
5 *59:12 0.000600218
6 *227:A *69:14 1.27928e-05
7 *227:A *74:16 0.000246096
8 *59:12 *73:10 9.75708e-05
9 *59:12 *75:10 6.17437e-06
10 *59:14 *69:14 6.92543e-05
11 *59:14 *73:10 0.000297963
12 *59:14 *75:10 0
13 *6:15 *59:12 6.14981e-05
14 *15:15 *59:12 5.19243e-05
15 *49:10 *227:A 0.000343168
16 *51:8 *59:14 3.98887e-05
17 *56:14 *59:14 0
*RES
1 *238:X *59:12 42.1221 
2 *59:12 *59:14 8.59643 
3 *59:14 *229:A1 38 
4 *59:14 *227:A 44.8771 
*END

*D_NET *60 0.00286826
*CONN
*I *230:B I *D sky130_fd_sc_hd__xor2_1
*I *239:X O *D sky130_fd_sc_hd__clkbuf_1
*CAP
1 *230:B 0.000147876
2 *239:X 0.000622568
3 *60:10 0.000770445
4 *230:B *73:20 0.000337205
5 *60:10 *66:20 0.000302339
6 *46:10 *230:B 0.000106277
7 *56:10 *60:10 0.000581545
*RES
1 *239:X *60:10 49.4136 
2 *60:10 *230:B 42.9093 
*END

*D_NET *61 0.00061975
*CONN
*I *248:A I *D sky130_fd_sc_hd__clkbuf_4
*I *198:X O *D sky130_fd_sc_hd__xor2_1
*CAP
1 *248:A 0
2 *198:X 0.000285389
3 *61:8 0.000285389
4 *19:8 *61:8 4.89706e-05
*RES
1 *198:X *61:8 44.1314 
2 *61:8 *248:A 38 
*END

*D_NET *62 0.00512054
*CONN
*I *249:A I *D sky130_fd_sc_hd__buf_2
*I *203:Y O *D sky130_fd_sc_hd__nor2_1
*CAP
1 *249:A 0
2 *203:Y 0.00159481
3 *62:14 0.000304245
4 *62:8 0.00189905
5 *62:8 *63:14 1.68594e-05
6 *203:B *62:8 5.82853e-05
7 *55:14 *62:8 3.86731e-05
8 *55:14 *62:14 1.13812e-05
9 *55:18 *62:8 0.00119723
*RES
1 *203:Y *62:8 46.3864 
2 *62:8 *62:14 35.7793 
3 *62:14 *249:A 23 
*END

*D_NET *63 0.00261593
*CONN
*I *250:A I *D sky130_fd_sc_hd__clkbuf_4
*I *208:X O *D sky130_fd_sc_hd__xor2_1
*CAP
1 *250:A 0
2 *208:X 0.000472275
3 *63:18 0.000661955
4 *63:14 0.00113423
5 *53:12 *63:18 0.000330615
6 *62:8 *63:14 1.68594e-05
*RES
1 *208:X *63:14 45.1879 
2 *63:14 *63:18 27.5321 
3 *63:18 *250:A 23 
*END

*D_NET *64 0.00394435
*CONN
*I *199:B1 I *D sky130_fd_sc_hd__a21o_1
*I *204:C I *D sky130_fd_sc_hd__and3_1
*I *200:C I *D sky130_fd_sc_hd__nand3_1
*I *240:X O *D sky130_fd_sc_hd__buf_1
*CAP
1 *199:B1 4.38591e-05
2 *204:C 0.000408701
3 *200:C 2.00801e-05
4 *240:X 0.000206903
5 *64:25 0.000585586
6 *64:10 0.00053193
7 *64:8 0.000585728
8 *199:B1 *199:A1 3.83053e-05
9 *199:B1 *68:16 2.44846e-05
10 *204:C *204:A 8.17328e-05
11 *204:C *68:16 2.02217e-05
12 *204:C *76:37 9.23082e-05
13 *64:10 *68:16 4.95928e-05
14 *64:25 *68:16 0.000221189
15 *201:A1 *199:B1 2.193e-05
16 *201:B1 *64:10 1.16551e-05
17 *203:A *204:C 3.39025e-05
18 *204:B *204:C 2.03764e-06
19 *28:14 *64:25 0.000108129
20 *28:31 *200:C 1.84917e-05
21 *29:12 *199:B1 4.51593e-05
22 *39:8 *64:10 4.08641e-05
23 *53:26 *199:B1 1.35999e-05
24 *53:26 *204:C 0.000101239
25 *53:32 *204:C 4.89938e-05
26 *53:32 *64:10 1.13812e-05
27 *53:32 *64:25 5.46958e-05
28 *54:10 *64:10 0.000363533
29 *54:18 *200:C 5.58003e-05
30 *57:12 *64:8 0.000102313
*RES
1 *240:X *64:8 41.0036 
2 *64:8 *64:10 10.005 
3 *64:10 *200:C 38.6214 
4 *64:10 *64:25 3.90464 
5 *64:25 *204:C 44.4318 
6 *64:25 *199:B1 39.4396 
*END

*D_NET *65 0.000445817
*CONN
*I *251:A I *D sky130_fd_sc_hd__clkbuf_4
*I *211:X O *D sky130_fd_sc_hd__xor2_1
*CAP
1 *251:A 0
2 *211:X 0.00019698
3 *65:12 0.00019698
4 *65:12 *74:16 5.18573e-05
*RES