*SPEF "ieee 1481-1999"
*DESIGN "baugh"
*DATE "11:11:11 Fri 11 11, 1111"
*VENDOR "OpenRCX"
*PROGRAM "Parallel Extraction"
*VERSION "1.0"
*DESIGN_FLOW "NAME_SCOPE LOCAL" "PIN_CAP NONE"
*DIVIDER /
*DELIMITER :
*BUS_DELIMITER []
*T_UNIT 1 NS
*C_UNIT 1 PF
*R_UNIT 1 OHM
*L_UNIT 1 HENRY

*NAME_MAP
*1 A[0]
*2 A[1]
*3 A[2]
*4 A[3]
*5 A[4]
*6 A[5]
*7 A[6]
*8 A[7]
*9 B[0]
*10 B[1]
*11 B[2]
*12 B[3]
*13 B[4]
*14 B[5]
*15 B[6]
*16 B[7]
*17 P[0]
*18 P[10]
*19 P[11]
*20 P[12]
*21 P[13]
*22 P[14]
*23 P[15]
*24 P[1]
*25 P[2]
*26 P[3]
*27 P[4]
*28 P[5]
*29 P[6]
*30 P[7]
*31 P[8]
*32 P[9]
*35 _000_
*36 _001_
*37 _002_
*38 _003_
*39 _004_
*40 _005_
*41 _006_
*42 _007_
*43 _008_
*44 _009_
*45 _010_
*46 _011_
*47 _012_
*48 _013_
*49 _014_
*50 _015_
*51 _016_
*52 _017_
*53 _018_
*54 _019_
*55 _020_
*56 _021_
*57 _022_
*58 _023_
*59 _024_
*60 _025_
*61 _026_
*62 _027_
*63 _028_
*64 _029_
*65 _030_
*66 _031_
*67 _032_
*68 _033_
*69 _034_
*70 _035_
*71 _036_
*72 _037_
*73 _038_
*74 _039_
*75 _040_
*76 _041_
*77 _042_
*78 _043_
*79 _044_
*80 _045_
*81 _046_
*82 _047_
*83 _048_
*84 _049_
*85 _050_
*86 _051_
*87 _052_
*88 _053_
*89 _054_
*90 _055_
*91 _056_
*92 _057_
*93 _058_
*94 _059_
*95 _060_
*96 _061_
*97 _062_
*98 _063_
*99 _064_
*100 _065_
*101 _066_
*102 _067_
*103 _068_
*104 _069_
*105 _070_
*106 _071_
*107 _072_
*108 _073_
*109 _074_
*110 _075_
*111 _076_
*112 _077_
*113 _078_
*114 _079_
*115 _080_
*116 _081_
*117 _082_
*118 _083_
*119 _084_
*120 _085_
*121 _086_
*122 _087_
*123 _088_
*124 _089_
*125 _090_
*126 _091_
*127 _092_
*128 _093_
*129 _094_
*130 _095_
*131 _096_
*132 _097_
*133 _098_
*134 _099_
*135 _100_
*136 _101_
*137 _102_
*138 _103_
*139 _104_
*140 _105_
*141 _106_
*142 _107_
*143 _108_
*144 _109_
*145 _110_
*146 _111_
*147 _112_
*148 _113_
*149 _114_
*150 _115_
*151 _116_
*152 _117_
*153 _118_
*154 _119_
*155 _120_
*156 _121_
*157 _122_
*158 _123_
*159 _124_
*160 _125_
*161 _126_
*162 _127_
*163 _128_
*164 _129_
*165 _130_
*166 _131_
*167 _132_
*168 _133_
*169 _134_
*170 _135_
*171 _136_
*172 _137_
*173 _138_
*174 _139_
*175 _140_
*176 _141_
*177 _142_
*178 _143_
*179 _144_
*180 _145_
*181 _146_
*182 _147_
*183 _148_
*184 _149_
*185 _150_
*186 _151_
*187 _152_
*188 _153_
*189 _154_
*190 _155_
*191 _156_
*192 _157_
*193 _158_
*194 _159_
*195 _160_
*196 _161_
*197 _162_
*198 _163_
*199 _164_
*200 _165_
*201 _166_
*202 _167_
*203 _168_
*204 _169_
*205 _170_
*206 _171_
*207 _172_
*208 _173_
*209 _174_
*210 _175_
*211 _176_
*212 _177_
*213 _178_
*214 _179_
*215 _180_
*216 _181_
*217 _182_
*218 _183_
*219 _184_
*220 _185_
*221 _186_
*222 _187_
*223 _188_
*224 _189_
*225 _190_
*226 _191_
*227 _192_
*228 _193_
*229 _194_
*230 _195_
*231 _196_
*232 _197_
*233 _198_
*234 _199_
*235 _200_
*236 _201_
*237 _202_
*238 _203_
*239 _204_
*240 _205_
*241 _206_
*242 _207_
*243 _208_
*244 _209_
*245 _210_
*246 _211_
*247 _212_
*248 _213_
*249 _214_
*250 _215_
*251 _216_
*252 _217_
*253 _218_
*254 _219_
*255 _220_
*256 _221_
*257 _222_
*258 _223_
*259 _224_
*260 _225_
*261 _226_
*262 _227_
*263 _228_
*264 _229_
*265 _230_
*266 _231_
*267 _232_
*268 _233_
*269 _234_
*270 _235_
*271 _236_
*272 _237_
*273 _238_
*274 _239_
*275 _240_
*276 _241_
*277 _242_
*278 _243_
*279 _244_
*280 _245_
*281 _246_
*282 _247_
*283 _248_
*284 _249_
*285 _250_
*286 _251_
*287 _252_
*288 _253_
*289 _254_
*290 _255_
*291 _256_
*292 _257_
*293 _258_
*294 _259_
*295 _260_
*296 _261_
*297 _262_
*298 _263_
*299 _264_
*300 _265_
*301 _266_
*302 _267_
*303 _268_
*304 _269_
*305 _270_
*306 _271_
*307 _272_
*308 _273_
*309 _274_
*310 _275_
*311 _276_
*312 _277_
*313 _278_
*314 _279_
*315 _280_
*316 _281_
*317 _282_
*318 _283_
*319 _284_
*320 _285_
*321 _286_
*322 _287_
*323 _288_
*324 _289_
*325 _290_
*326 _291_
*327 _292_
*328 _293_
*329 _294_
*330 _295_
*331 _296_
*332 _297_
*333 _298_
*334 _299_
*335 _300_
*336 _301_
*337 _302_
*338 _303_
*339 _304_
*340 _305_
*341 _306_
*342 _307_
*343 _308_
*344 _309_
*345 _310_
*346 _311_
*347 _312_
*348 _313_
*349 _314_
*350 _315_
*351 _316_
*352 _317_
*353 _318_
*354 _319_
*355 _320_
*356 _321_
*357 _322_
*358 _323_
*359 _324_
*360 _325_
*361 _326_
*362 _327_
*363 _328_
*364 _329_
*365 _330_
*366 _331_
*367 _332_
*368 _333_
*369 _334_
*370 _335_
*371 _336_
*372 _337_
*373 _338_
*374 _339_
*375 _340_
*376 _341_
*377 _342_
*378 _343_
*379 _344_
*380 _345_
*381 _346_
*382 _347_
*383 _348_
*384 _349_
*385 _350_
*386 _351_
*387 _352_
*388 _353_
*389 _354_
*390 _355_
*391 _356_
*392 _357_
*393 net1
*394 net10
*395 net11
*396 net12
*397 net13
*398 net14
*399 net15
*400 net16
*401 net17
*402 net18
*403 net19
*404 net2
*405 net20
*406 net21
*407 net22
*408 net23
*409 net24
*410 net25
*411 net26
*412 net27
*413 net28
*414 net29
*415 net3
*416 net30
*417 net31
*418 net32
*419 net33
*420 net34
*421 net35
*422 net36
*423 net37
*424 net38
*425 net39
*426 net4
*427 net40
*428 net41
*429 net42
*430 net43
*431 net44
*432 net45
*433 net5
*434 net6
*435 net7
*436 net8
*437 net9
*438 FILLER_0_0_103
*439 FILLER_0_0_111
*440 FILLER_0_0_113
*441 FILLER_0_0_121
*442 FILLER_0_0_126
*443 FILLER_0_0_138
*444 FILLER_0_0_141
*445 FILLER_0_0_153
*446 FILLER_0_0_163
*447 FILLER_0_0_167
*448 FILLER_0_0_169
*449 FILLER_0_0_181
*450 FILLER_0_0_194
*451 FILLER_0_0_197
*452 FILLER_0_0_209
*453 FILLER_0_0_21
*454 FILLER_0_0_217
*455 FILLER_0_0_225
*456 FILLER_0_0_27
*457 FILLER_0_0_29
*458 FILLER_0_0_41
*459 FILLER_0_0_53
*460 FILLER_0_0_63
*461 FILLER_0_0_75
*462 FILLER_0_0_83
*463 FILLER_0_0_9
*464 FILLER_0_0_91
*465 FILLER_0_10_109
*466 FILLER_0_10_121
*467 FILLER_0_10_133
*468 FILLER_0_10_139
*469 FILLER_0_10_141
*470 FILLER_0_10_15
*471 FILLER_0_10_153
*472 FILLER_0_10_170
*473 FILLER_0_10_182
*474 FILLER_0_10_194
*475 FILLER_0_10_197
*476 FILLER_0_10_209
*477 FILLER_0_10_221
*478 FILLER_0_10_233
*479 FILLER_0_10_27
*480 FILLER_0_10_29
*481 FILLER_0_10_3
*482 FILLER_0_10_41
*483 FILLER_0_10_53
*484 FILLER_0_10_65
*485 FILLER_0_10_77
*486 FILLER_0_10_83
*487 FILLER_0_10_85
*488 FILLER_0_10_97
*489 FILLER_0_11_103
*490 FILLER_0_11_11
*491 FILLER_0_11_111
*492 FILLER_0_11_113
*493 FILLER_0_11_121
*494 FILLER_0_11_131
*495 FILLER_0_11_139
*496 FILLER_0_11_145
*497 FILLER_0_11_149
*498 FILLER_0_11_158
*499 FILLER_0_11_166
*500 FILLER_0_11_169
*501 FILLER_0_11_181
*502 FILLER_0_11_193
*503 FILLER_0_11_209
*504 FILLER_0_11_21
*505 FILLER_0_11_221
*506 FILLER_0_11_232
*507 FILLER_0_11_3
*508 FILLER_0_11_35
*509 FILLER_0_11_43
*510 FILLER_0_11_53
*511 FILLER_0_11_63
*512 FILLER_0_11_71
*513 FILLER_0_11_79
*514 FILLER_0_11_91
*515 FILLER_0_12_120
*516 FILLER_0_12_141
*517 FILLER_0_12_15
*518 FILLER_0_12_158
*519 FILLER_0_12_182
*520 FILLER_0_12_194
*521 FILLER_0_12_197
*522 FILLER_0_12_231
*523 FILLER_0_12_27
*524 FILLER_0_12_3
*525 FILLER_0_12_41
*526 FILLER_0_12_45
*527 FILLER_0_12_53
*528 FILLER_0_12_65
*529 FILLER_0_12_80
*530 FILLER_0_12_90
*531 FILLER_0_12_98
*532 FILLER_0_13_105
*533 FILLER_0_13_111
*534 FILLER_0_13_113
*535 FILLER_0_13_123
*536 FILLER_0_13_131
*537 FILLER_0_13_141
*538 FILLER_0_13_15
*539 FILLER_0_13_152
*540 FILLER_0_13_201
*541 FILLER_0_13_207
*542 FILLER_0_13_219
*543 FILLER_0_13_223
*544 FILLER_0_13_225
*545 FILLER_0_13_233
*546 FILLER_0_13_27
*547 FILLER_0_13_3
*548 FILLER_0_13_39
*549 FILLER_0_13_51
*550 FILLER_0_13_55
*551 FILLER_0_13_57
*552 FILLER_0_13_69
*553 FILLER_0_13_81
*554 FILLER_0_13_93
*555 FILLER_0_14_105
*556 FILLER_0_14_115
*557 FILLER_0_14_12
*558 FILLER_0_14_127
*559 FILLER_0_14_139
*560 FILLER_0_14_141
*561 FILLER_0_14_153
*562 FILLER_0_14_165
*563 FILLER_0_14_177
*564 FILLER_0_14_189
*565 FILLER_0_14_195
*566 FILLER_0_14_197
*567 FILLER_0_14_209
*568 FILLER_0_14_221
*569 FILLER_0_14_24
*570 FILLER_0_14_29
*571 FILLER_0_14_41
*572 FILLER_0_14_53
*573 FILLER_0_14_65
*574 FILLER_0_14_77
*575 FILLER_0_14_82
*576 FILLER_0_14_85
*577 FILLER_0_14_97
*578 FILLER_0_15_104
*579 FILLER_0_15_110
*580 FILLER_0_15_113
*581 FILLER_0_15_125
*582 FILLER_0_15_137
*583 FILLER_0_15_149
*584 FILLER_0_15_161
*585 FILLER_0_15_167
*586 FILLER_0_15_169
*587 FILLER_0_15_181
*588 FILLER_0_15_193
*589 FILLER_0_15_205
*590 FILLER_0_15_217
*591 FILLER_0_15_223
*592 FILLER_0_15_225
*593 FILLER_0_15_233
*594 FILLER_0_15_3
*595 FILLER_0_15_32
*596 FILLER_0_15_40
*597 FILLER_0_15_49
*598 FILLER_0_15_55
*599 FILLER_0_15_57
*600 FILLER_0_15_69
*601 FILLER_0_15_81
*602 FILLER_0_15_93
*603 FILLER_0_16_11
*604 FILLER_0_16_118
*605 FILLER_0_16_125
*606 FILLER_0_16_131
*607 FILLER_0_16_160
*608 FILLER_0_16_172
*609 FILLER_0_16_184
*610 FILLER_0_16_203
*611 FILLER_0_16_215
*612 FILLER_0_16_227
*613 FILLER_0_16_26
*614 FILLER_0_16_29
*615 FILLER_0_16_3
*616 FILLER_0_16_51
*617 FILLER_0_16_57
*618 FILLER_0_16_69
*619 FILLER_0_16_81
*620 FILLER_0_16_85
*621 FILLER_0_16_97
*622 FILLER_0_17_100
*623 FILLER_0_17_111
*624 FILLER_0_17_116
*625 FILLER_0_17_128
*626 FILLER_0_17_140
*627 FILLER_0_17_15
*628 FILLER_0_17_152
*629 FILLER_0_17_164
*630 FILLER_0_17_169
*631 FILLER_0_17_173
*632 FILLER_0_17_189
*633 FILLER_0_17_197
*634 FILLER_0_17_212
*635 FILLER_0_17_225
*636 FILLER_0_17_233
*637 FILLER_0_17_27
*638 FILLER_0_17_3
*639 FILLER_0_17_39
*640 FILLER_0_17_51
*641 FILLER_0_17_55
*642 FILLER_0_17_88
*643 FILLER_0_18_10
*644 FILLER_0_18_107
*645 FILLER_0_18_118
*646 FILLER_0_18_125
*647 FILLER_0_18_133
*648 FILLER_0_18_148
*649 FILLER_0_18_156
*650 FILLER_0_18_163
*651 FILLER_0_18_195
*652 FILLER_0_18_210
*653 FILLER_0_18_22
*654 FILLER_0_18_222
*655 FILLER_0_18_234
*656 FILLER_0_18_3
*657 FILLER_0_18_35
*658 FILLER_0_18_47
*659 FILLER_0_18_59
*660 FILLER_0_18_71
*661 FILLER_0_18_83
*662 FILLER_0_18_85
*663 FILLER_0_18_99
*664 FILLER_0_19_108
*665 FILLER_0_19_121
*666 FILLER_0_19_132
*667 FILLER_0_19_138
*668 FILLER_0_19_14
*669 FILLER_0_19_148
*670 FILLER_0_19_160
*671 FILLER_0_19_176
*672 FILLER_0_19_188
*673 FILLER_0_19_200
*674 FILLER_0_19_212
*675 FILLER_0_19_225
*676 FILLER_0_19_233
*677 FILLER_0_19_3
*678 FILLER_0_19_38
*679 FILLER_0_19_50
*680 FILLER_0_19_57
*681 FILLER_0_19_69
*682 FILLER_0_19_7
*683 FILLER_0_19_81
*684 FILLER_0_19_96
*685 FILLER_0_1_111
*686 FILLER_0_1_118
*687 FILLER_0_1_130
*688 FILLER_0_1_142
*689 FILLER_0_1_151
*690 FILLER_0_1_163
*691 FILLER_0_1_167
*692 FILLER_0_1_169
*693 FILLER_0_1_182
*694 FILLER_0_1_19
*695 FILLER_0_1_194
*696 FILLER_0_1_206
*697 FILLER_0_1_218
*698 FILLER_0_1_225
*699 FILLER_0_1_233
*700 FILLER_0_1_31
*701 FILLER_0_1_43
*702 FILLER_0_1_54
*703 FILLER_0_1_60
*704 FILLER_0_1_64
*705 FILLER_0_1_68
*706 FILLER_0_1_7
*707 FILLER_0_1_80
*708 FILLER_0_1_93
*709 FILLER_0_1_99
*710 FILLER_0_20_109
*711 FILLER_0_20_121
*712 FILLER_0_20_133
*713 FILLER_0_20_139
*714 FILLER_0_20_141
*715 FILLER_0_20_153
*716 FILLER_0_20_165
*717 FILLER_0_20_177
*718 FILLER_0_20_189
*719 FILLER_0_20_195
*720 FILLER_0_20_197
*721 FILLER_0_20_209
*722 FILLER_0_20_221
*723 FILLER_0_20_225
*724 FILLER_0_20_27
*725 FILLER_0_20_29
*726 FILLER_0_20_3
*727 FILLER_0_20_41
*728 FILLER_0_20_60
*729 FILLER_0_20_69
*730 FILLER_0_20_81
*731 FILLER_0_20_85
*732 FILLER_0_20_97
*733 FILLER_0_21_100
*734 FILLER_0_21_113
*735 FILLER_0_21_123
*736 FILLER_0_21_136
*737 FILLER_0_21_148
*738 FILLER_0_21_169
*739 FILLER_0_21_18
*740 FILLER_0_21_190
*741 FILLER_0_21_202
*742 FILLER_0_21_214
*743 FILLER_0_21_222
*744 FILLER_0_21_225
*745 FILLER_0_21_233
*746 FILLER_0_21_3
*747 FILLER_0_21_30
*748 FILLER_0_21_38
*749 FILLER_0_21_53
*750 FILLER_0_21_57
*751 FILLER_0_21_66
*752 FILLER_0_21_76
*753 FILLER_0_21_88
*754 FILLER_0_22_111
*755 FILLER_0_22_115
*756 FILLER_0_22_132
*757 FILLER_0_22_141
*758 FILLER_0_22_15
*759 FILLER_0_22_158
*760 FILLER_0_22_163
*761 FILLER_0_22_167
*762 FILLER_0_22_173
*763 FILLER_0_22_190
*764 FILLER_0_22_197
*765 FILLER_0_22_201
*766 FILLER_0_22_206
*767 FILLER_0_22_218
*768 FILLER_0_22_230
*769 FILLER_0_22_234
*770 FILLER_0_22_27
*771 FILLER_0_22_29
*772 FILLER_0_22_3
*773 FILLER_0_22_41
*774 FILLER_0_22_45
*775 FILLER_0_22_52
*776 FILLER_0_22_64
*777 FILLER_0_22_76
*778 FILLER_0_22_99
*779 FILLER_0_23_110
*780 FILLER_0_23_113
*781 FILLER_0_23_121
*782 FILLER_0_23_127
*783 FILLER_0_23_137
*784 FILLER_0_23_149
*785 FILLER_0_23_157
*786 FILLER_0_23_165
*787 FILLER_0_23_169
*788 FILLER_0_23_177
*789 FILLER_0_23_190
*790 FILLER_0_23_196
*791 FILLER_0_23_206
*792 FILLER_0_23_21
*793 FILLER_0_23_218
*794 FILLER_0_23_225
*795 FILLER_0_23_233
*796 FILLER_0_23_3
*797 FILLER_0_23_46
*798 FILLER_0_23_54
*799 FILLER_0_23_57
*800 FILLER_0_23_69
*801 FILLER_0_23_82
*802 FILLER_0_23_9
*803 FILLER_0_23_94
*804 FILLER_0_24_10
*805 FILLER_0_24_101
*806 FILLER_0_24_108
*807 FILLER_0_24_120
*808 FILLER_0_24_138
*809 FILLER_0_24_141
*810 FILLER_0_24_154
*811 FILLER_0_24_16
*812 FILLER_0_24_166
*813 FILLER_0_24_180
*814 FILLER_0_24_197
*815 FILLER_0_24_207
*816 FILLER_0_24_219
*817 FILLER_0_24_23
*818 FILLER_0_24_231
*819 FILLER_0_24_27
*820 FILLER_0_24_29
*821 FILLER_0_24_40
*822 FILLER_0_24_52
*823 FILLER_0_24_64
*824 FILLER_0_24_76
*825 FILLER_0_24_85
*826 FILLER_0_25_105
*827 FILLER_0_25_111
*828 FILLER_0_25_113
*829 FILLER_0_25_125
*830 FILLER_0_25_137
*831 FILLER_0_25_147
*832 FILLER_0_25_158
*833 FILLER_0_25_166
*834 FILLER_0_25_183
*835 FILLER_0_25_195
*836 FILLER_0_25_207
*837 FILLER_0_25_219
*838 FILLER_0_25_223
*839 FILLER_0_25_225
*840 FILLER_0_25_23
*841 FILLER_0_25_233
*842 FILLER_0_25_3
*843 FILLER_0_25_34
*844 FILLER_0_25_46
*845 FILLER_0_25_54
*846 FILLER_0_25_57
*847 FILLER_0_25_69
*848 FILLER_0_25_81
*849 FILLER_0_25_93
*850 FILLER_0_26_109
*851 FILLER_0_26_122
*852 FILLER_0_26_134
*853 FILLER_0_26_151
*854 FILLER_0_26_163
*855 FILLER_0_26_175
*856 FILLER_0_26_187
*857 FILLER_0_26_19
*858 FILLER_0_26_195
*859 FILLER_0_26_197
*860 FILLER_0_26_209
*861 FILLER_0_26_221
*862 FILLER_0_26_42
*863 FILLER_0_26_50
*864 FILLER_0_26_60
*865 FILLER_0_26_78
*866 FILLER_0_26_85
*867 FILLER_0_26_97
*868 FILLER_0_27_103
*869 FILLER_0_27_121
*870 FILLER_0_27_131
*871 FILLER_0_27_142
*872 FILLER_0_27_15
*873 FILLER_0_27_154
*874 FILLER_0_27_166
*875 FILLER_0_27_175
*876 FILLER_0_27_200
*877 FILLER_0_27_212
*878 FILLER_0_27_225
*879 FILLER_0_27_233
*880 FILLER_0_27_27
*881 FILLER_0_27_3
*882 FILLER_0_27_39
*883 FILLER_0_27_51
*884 FILLER_0_27_55
*885 FILLER_0_27_60
*886 FILLER_0_27_69
*887 FILLER_0_27_91
*888 FILLER_0_28_112
*889 FILLER_0_28_124
*890 FILLER_0_28_136
*891 FILLER_0_28_141
*892 FILLER_0_28_15
*893 FILLER_0_28_153
*894 FILLER_0_28_159
*895 FILLER_0_28_165
*896 FILLER_0_28_173
*897 FILLER_0_28_181
*898 FILLER_0_28_193
*899 FILLER_0_28_210
*900 FILLER_0_28_222
*901 FILLER_0_28_234
*902 FILLER_0_28_27
*903 FILLER_0_28_29
*904 FILLER_0_28_3
*905 FILLER_0_28_35
*906 FILLER_0_28_40
*907 FILLER_0_28_44
*908 FILLER_0_28_52
*909 FILLER_0_28_64
*910 FILLER_0_28_76
*911 FILLER_0_28_85
*912 FILLER_0_28_97
*913 FILLER_0_29_110
*914 FILLER_0_29_113
*915 FILLER_0_29_125
*916 FILLER_0_29_133
*917 FILLER_0_29_145
*918 FILLER_0_29_153
*919 FILLER_0_29_164
*920 FILLER_0_29_169
*921 FILLER_0_29_18
*922 FILLER_0_29_181
*923 FILLER_0_29_193
*924 FILLER_0_29_209
*925 FILLER_0_29_221
*926 FILLER_0_29_225
*927 FILLER_0_29_233
*928 FILLER_0_29_3
*929 FILLER_0_29_30
*930 FILLER_0_29_42
*931 FILLER_0_29_53
*932 FILLER_0_29_57
*933 FILLER_0_29_69
*934 FILLER_0_29_81
*935 FILLER_0_29_89
*936 FILLER_0_29_98
*937 FILLER_0_2_104
*938 FILLER_0_2_114
*939 FILLER_0_2_133
*940 FILLER_0_2_139
*941 FILLER_0_2_141
*942 FILLER_0_2_15
*943 FILLER_0_2_166
*944 FILLER_0_2_176
*945 FILLER_0_2_180
*946 FILLER_0_2_189
*947 FILLER_0_2_195
*948 FILLER_0_2_219
*949 FILLER_0_2_27
*950 FILLER_0_2_29
*951 FILLER_0_2_3
*952 FILLER_0_2_41
*953 FILLER_0_2_80
*954 FILLER_0_2_91
*955 FILLER_0_30_102
*956 FILLER_0_30_121
*957 FILLER_0_30_133
*958 FILLER_0_30_139
*959 FILLER_0_30_141
*960 FILLER_0_30_15
*961 FILLER_0_30_153
*962 FILLER_0_30_157
*963 FILLER_0_30_168
*964 FILLER_0_30_180
*965 FILLER_0_30_192
*966 FILLER_0_30_197
*967 FILLER_0_30_201
*968 FILLER_0_30_212
*969 FILLER_0_30_224
*970 FILLER_0_30_232
*971 FILLER_0_30_27
*972 FILLER_0_30_29
*973 FILLER_0_30_3
*974 FILLER_0_30_41
*975 FILLER_0_30_53
*976 FILLER_0_30_65
*977 FILLER_0_30_77
*978 FILLER_0_30_83
*979 FILLER_0_30_85
*980 FILLER_0_30_91
*981 FILLER_0_31_103
*982 FILLER_0_31_111
*983 FILLER_0_31_113
*984 FILLER_0_31_125
*985 FILLER_0_31_137
*986 FILLER_0_31_142
*987 FILLER_0_31_150
*988 FILLER_0_31_155
*989 FILLER_0_31_167
*990 FILLER_0_31_169
*991 FILLER_0_31_184
*992 FILLER_0_31_19
*993 FILLER_0_31_196
*994 FILLER_0_31_204
*995 FILLER_0_31_217
*996 FILLER_0_31_223
*997 FILLER_0_31_232
*998 FILLER_0_31_31
*999 FILLER_0_31_45
*1000 FILLER_0_31_55
*1001 FILLER_0_31_57
*1002 FILLER_0_31_69
*1003 FILLER_0_31_7
*1004 FILLER_0_31_79
*1005 FILLER_0_31_91
*1006 FILLER_0_32_103
*1007 FILLER_0_32_123
*1008 FILLER_0_32_137
*1009 FILLER_0_32_141
*1010 FILLER_0_32_15
*1011 FILLER_0_32_155
*1012 FILLER_0_32_167
*1013 FILLER_0_32_173
*1014 FILLER_0_32_184
*1015 FILLER_0_32_195
*1016 FILLER_0_32_197
*1017 FILLER_0_32_206
*1018 FILLER_0_32_218
*1019 FILLER_0_32_230
*1020 FILLER_0_32_27
*1021 FILLER_0_32_29
*1022 FILLER_0_32_3
*1023 FILLER_0_32_45
*1024 FILLER_0_32_58
*1025 FILLER_0_32_70
*1026 FILLER_0_32_81
*1027 FILLER_0_32_85
*1028 FILLER_0_32_95
*1029 FILLER_0_33_109
*1030 FILLER_0_33_11
*1031 FILLER_0_33_120
*1032 FILLER_0_33_15
*1033 FILLER_0_33_151
*1034 FILLER_0_33_163
*1035 FILLER_0_33_167
*1036 FILLER_0_33_169
*1037 FILLER_0_33_181
*1038 FILLER_0_33_197
*1039 FILLER_0_33_209
*1040 FILLER_0_33_221
*1041 FILLER_0_33_225
*1042 FILLER_0_33_233
*1043 FILLER_0_33_28
*1044 FILLER_0_33_3
*1045 FILLER_0_33_36
*1046 FILLER_0_33_48
*1047 FILLER_0_33_57
*1048 FILLER_0_33_69
*1049 FILLER_0_33_85
*1050 FILLER_0_33_97
*1051 FILLER_0_34_109
*1052 FILLER_0_34_121
*1053 FILLER_0_34_133
*1054 FILLER_0_34_139
*1055 FILLER_0_34_141
*1056 FILLER_0_34_153
*1057 FILLER_0_34_165
*1058 FILLER_0_34_182
*1059 FILLER_0_34_189
*1060 FILLER_0_34_19
*1061 FILLER_0_34_195
*1062 FILLER_0_34_197
*1063 FILLER_0_34_205
*1064 FILLER_0_34_217
*1065 FILLER_0_34_229
*1066 FILLER_0_34_27
*1067 FILLER_0_34_3
*1068 FILLER_0_34_43
*1069 FILLER_0_34_55
*1070 FILLER_0_34_67
*1071 FILLER_0_34_79
*1072 FILLER_0_34_83
*1073 FILLER_0_34_85
*1074 FILLER_0_34_97
*1075 FILLER_0_35_106
*1076 FILLER_0_35_113
*1077 FILLER_0_35_125
*1078 FILLER_0_35_133
*1079 FILLER_0_35_143
*1080 FILLER_0_35_15
*1081 FILLER_0_35_151
*1082 FILLER_0_35_159
*1083 FILLER_0_35_163
*1084 FILLER_0_35_167
*1085 FILLER_0_35_169
*1086 FILLER_0_35_181
*1087 FILLER_0_35_193
*1088 FILLER_0_35_205
*1089 FILLER_0_35_217
*1090 FILLER_0_35_223
*1091 FILLER_0_35_225
*1092 FILLER_0_35_233
*1093 FILLER_0_35_27
*1094 FILLER_0_35_3
*1095 FILLER_0_35_39
*1096 FILLER_0_35_51
*1097 FILLER_0_35_55
*1098 FILLER_0_35_57
*1099 FILLER_0_35_69
*1100 FILLER_0_35_82
*1101 FILLER_0_35_94
*1102 FILLER_0_36_101
*1103 FILLER_0_36_115
*1104 FILLER_0_36_123
*1105 FILLER_0_36_136
*1106 FILLER_0_36_141
*1107 FILLER_0_36_147
*1108 FILLER_0_36_15
*1109 FILLER_0_36_151
*1110 FILLER_0_36_155
*1111 FILLER_0_36_168
*1112 FILLER_0_36_180
*1113 FILLER_0_36_189
*1114 FILLER_0_36_195
*1115 FILLER_0_36_197
*1116 FILLER_0_36_209
*1117 FILLER_0_36_221
*1118 FILLER_0_36_233
*1119 FILLER_0_36_27
*1120 FILLER_0_36_29
*1121 FILLER_0_36_3
*1122 FILLER_0_36_41
*1123 FILLER_0_36_53
*1124 FILLER_0_36_65
*1125 FILLER_0_36_81
*1126 FILLER_0_36_85
*1127 FILLER_0_36_97
*1128 FILLER_0_37_113
*1129 FILLER_0_37_125
*1130 FILLER_0_37_137
*1131 FILLER_0_37_149
*1132 FILLER_0_37_164
*1133 FILLER_0_37_169
*1134 FILLER_0_37_177
*1135 FILLER_0_37_200
*1136 FILLER_0_37_204
*1137 FILLER_0_37_21
*1138 FILLER_0_37_213
*1139 FILLER_0_37_221
*1140 FILLER_0_37_225
*1141 FILLER_0_37_233
*1142 FILLER_0_37_33
*1143 FILLER_0_37_45
*1144 FILLER_0_37_53
*1145 FILLER_0_37_57
*1146 FILLER_0_37_9
*1147 FILLER_0_37_98
*1148 FILLER_0_38_100
*1149 FILLER_0_38_104
*1150 FILLER_0_38_115
*1151 FILLER_0_38_127
*1152 FILLER_0_38_133
*1153 FILLER_0_38_145
*1154 FILLER_0_38_15
*1155 FILLER_0_38_157
*1156 FILLER_0_38_171
*1157 FILLER_0_38_183
*1158 FILLER_0_38_195
*1159 FILLER_0_38_197
*1160 FILLER_0_38_209
*1161 FILLER_0_38_213
*1162 FILLER_0_38_225
*1163 FILLER_0_38_233
*1164 FILLER_0_38_27
*1165 FILLER_0_38_29
*1166 FILLER_0_38_3
*1167 FILLER_0_38_41
*1168 FILLER_0_38_53
*1169 FILLER_0_38_65
*1170 FILLER_0_38_77
*1171 FILLER_0_38_83
*1172 FILLER_0_38_88
*1173 FILLER_0_39_103
*1174 FILLER_0_39_111
*1175 FILLER_0_39_113
*1176 FILLER_0_39_119
*1177 FILLER_0_39_13
*1178 FILLER_0_39_131
*1179 FILLER_0_39_139
*1180 FILLER_0_39_141
*1181 FILLER_0_39_149
*1182 FILLER_0_39_156
*1183 FILLER_0_39_169
*1184 FILLER_0_39_181
*1185 FILLER_0_39_189
*1186 FILLER_0_39_195
*1187 FILLER_0_39_197
*1188 FILLER_0_39_209
*1189 FILLER_0_39_217
*1190 FILLER_0_39_23
*1191 FILLER_0_39_27
*1192 FILLER_0_39_29
*1193 FILLER_0_39_41
*1194 FILLER_0_39_49
*1195 FILLER_0_39_57
*1196 FILLER_0_39_69
*1197 FILLER_0_39_81
*1198 FILLER_0_39_9
*1199 FILLER_0_39_91
*1200 FILLER_0_3_103
*1201 FILLER_0_3_111
*1202 FILLER_0_3_118
*1203 FILLER_0_3_130
*1204 FILLER_0_3_138
*1205 FILLER_0_3_146
*1206 FILLER_0_3_15
*1207 FILLER_0_3_158
*1208 FILLER_0_3_166
*1209 FILLER_0_3_169
*1210 FILLER_0_3_181
*1211 FILLER_0_3_201
*1212 FILLER_0_3_210
*1213 FILLER_0_3_222
*1214 FILLER_0_3_225
*1215 FILLER_0_3_23
*1216 FILLER_0_3_233
*1217 FILLER_0_3_29
*1218 FILLER_0_3_3
*1219 FILLER_0_3_55
*1220 FILLER_0_3_57
*1221 FILLER_0_3_63
*1222 FILLER_0_3_75
*1223 FILLER_0_3_87
*1224 FILLER_0_3_99
*1225 FILLER_0_4_103
*1226 FILLER_0_4_111
*1227 FILLER_0_4_123
*1228 FILLER_0_4_135
*1229 FILLER_0_4_139
*1230 FILLER_0_4_145
*1231 FILLER_0_4_15
*1232 FILLER_0_4_157
*1233 FILLER_0_4_169
*1234 FILLER_0_4_181
*1235 FILLER_0_4_193
*1236 FILLER_0_4_197
*1237 FILLER_0_4_209
*1238 FILLER_0_4_221
*1239 FILLER_0_4_233
*1240 FILLER_0_4_29
*1241 FILLER_0_4_3
*1242 FILLER_0_4_33
*1243 FILLER_0_4_47
*1244 FILLER_0_4_59
*1245 FILLER_0_4_71
*1246 FILLER_0_4_83
*1247 FILLER_0_4_85
*1248 FILLER_0_4_97
*1249 FILLER_0_5_108
*1250 FILLER_0_5_113
*1251 FILLER_0_5_125
*1252 FILLER_0_5_137
*1253 FILLER_0_5_149
*1254 FILLER_0_5_15
*1255 FILLER_0_5_161
*1256 FILLER_0_5_167
*1257 FILLER_0_5_169
*1258 FILLER_0_5_181
*1259 FILLER_0_5_193
*1260 FILLER_0_5_205
*1261 FILLER_0_5_217
*1262 FILLER_0_5_221
*1263 FILLER_0_5_225
*1264 FILLER_0_5_233
*1265 FILLER_0_5_27
*1266 FILLER_0_5_3
*1267 FILLER_0_5_39
*1268 FILLER_0_5_51
*1269 FILLER_0_5_55
*1270 FILLER_0_5_57
*1271 FILLER_0_5_69
*1272 FILLER_0_5_84
*1273 FILLER_0_5_96
*1274 FILLER_0_6_103
*1275 FILLER_0_6_111
*1276 FILLER_0_6_123
*1277 FILLER_0_6_131
*1278 FILLER_0_6_139
*1279 FILLER_0_6_141
*1280 FILLER_0_6_15
*1281 FILLER_0_6_153
*1282 FILLER_0_6_161
*1283 FILLER_0_6_171
*1284 FILLER_0_6_183
*1285 FILLER_0_6_195
*1286 FILLER_0_6_228
*1287 FILLER_0_6_234
*1288 FILLER_0_6_27
*1289 FILLER_0_6_29
*1290 FILLER_0_6_3
*1291 FILLER_0_6_41
*1292 FILLER_0_6_53
*1293 FILLER_0_6_65
*1294 FILLER_0_6_69
*1295 FILLER_0_6_76
*1296 FILLER_0_6_85
*1297 FILLER_0_6_97
*1298 FILLER_0_7_106
*1299 FILLER_0_7_121
*1300 FILLER_0_7_137
*1301 FILLER_0_7_148
*1302 FILLER_0_7_160
*1303 FILLER_0_7_177
*1304 FILLER_0_7_19
*1305 FILLER_0_7_203
*1306 FILLER_0_7_216
*1307 FILLER_0_7_221
*1308 FILLER_0_7_233
*1309 FILLER_0_7_25
*1310 FILLER_0_7_39
*1311 FILLER_0_7_51
*1312 FILLER_0_7_55
*1313 FILLER_0_7_64
*1314 FILLER_0_7_7
*1315 FILLER_0_7_76
*1316 FILLER_0_7_94
*1317 FILLER_0_8_106
*1318 FILLER_0_8_115
*1319 FILLER_0_8_127
*1320 FILLER_0_8_139
*1321 FILLER_0_8_15
*1322 FILLER_0_8_154
*1323 FILLER_0_8_162
*1324 FILLER_0_8_171
*1325 FILLER_0_8_183
*1326 FILLER_0_8_195
*1327 FILLER_0_8_202
*1328 FILLER_0_8_214
*1329 FILLER_0_8_226
*1330 FILLER_0_8_234
*1331 FILLER_0_8_27
*1332 FILLER_0_8_3
*1333 FILLER_0_8_48
*1334 FILLER_0_8_60
*1335 FILLER_0_8_72
*1336 FILLER_0_8_98
*1337 FILLER_0_9_109
*1338 FILLER_0_9_120
*1339 FILLER_0_9_132
*1340 FILLER_0_9_144
*1341 FILLER_0_9_15
*1342 FILLER_0_9_156
*1343 FILLER_0_9_177
*1344 FILLER_0_9_189
*1345 FILLER_0_9_19
*1346 FILLER_0_9_201
*1347 FILLER_0_9_213
*1348 FILLER_0_9_221
*1349 FILLER_0_9_225
*1350 FILLER_0_9_29
*1351 FILLER_0_9_3
*1352 FILLER_0_9_41
*1353 FILLER_0_9_49
*1354 FILLER_0_9_57
*1355 FILLER_0_9_69
*1356 FILLER_0_9_77
*1357 FILLER_0_9_85
*1358 FILLER_0_9_97
*1359 PHY_0
*1360 PHY_1
*1361 PHY_10
*1362 PHY_11
*1363 PHY_12
*1364 PHY_13
*1365 PHY_14
*1366 PHY_15
*1367 PHY_16
*1368 PHY_17
*1369 PHY_18
*1370 PHY_19
*1371 PHY_2
*1372 PHY_20
*1373 PHY_21
*1374 PHY_22
*1375 PHY_23
*1376 PHY_24
*1377 PHY_25
*1378 PHY_26
*1379 PHY_27
*1380 PHY_28
*1381 PHY_29
*1382 PHY_3
*1383 PHY_30
*1384 PHY_31
*1385 PHY_32
*1386 PHY_33
*1387 PHY_34
*1388 PHY_35
*1389 PHY_36
*1390 PHY_37
*1391 PHY_38
*1392 PHY_39
*1393 PHY_4
*1394 PHY_40
*1395 PHY_41
*1396 PHY_42
*1397 PHY_43
*1398 PHY_44
*1399 PHY_45
*1400 PHY_46
*1401 PHY_47
*1402 PHY_48
*1403 PHY_49
*1404 PHY_5
*1405 PHY_50
*1406 PHY_51
*1407 PHY_52
*1408 PHY_53
*1409 PHY_54
*1410 PHY_55
*1411 PHY_56
*1412 PHY_57
*1413 PHY_58
*1414 PHY_59
*1415 PHY_6
*1416 PHY_60
*1417 PHY_61
*1418 PHY_62
*1419 PHY_63
*1420 PHY_64
*1421 PHY_65
*1422 PHY_66
*1423 PHY_67
*1424 PHY_68
*1425 PHY_69
*1426 PHY_7
*1427 PHY_70
*1428 PHY_71
*1429 PHY_72
*1430 PHY_73
*1431 PHY_74
*1432 PHY_75
*1433 PHY_76
*1434 PHY_77
*1435 PHY_78
*1436 PHY_79
*1437 PHY_8
*1438 PHY_9
*1439 TAP_100
*1440 TAP_101
*1441 TAP_102
*1442 TAP_103
*1443 TAP_104
*1444 TAP_105
*1445 TAP_106
*1446 TAP_107
*1447 TAP_108
*1448 TAP_109
*1449 TAP_110
*1450 TAP_111
*1451 TAP_112
*1452 TAP_113
*1453 TAP_114
*1454 TAP_115
*1455 TAP_116
*1456 TAP_117
*1457 TAP_118
*1458 TAP_119
*1459 TAP_120
*1460 TAP_121
*1461 TAP_122
*1462 TAP_123
*1463 TAP_124
*1464 TAP_125
*1465 TAP_126
*1466 TAP_127
*1467 TAP_128
*1468 TAP_129
*1469 TAP_130
*1470 TAP_131
*1471 TAP_132
*1472 TAP_133
*1473 TAP_134
*1474 TAP_135
*1475 TAP_136
*1476 TAP_137
*1477 TAP_138
*1478 TAP_139
*1479 TAP_140
*1480 TAP_141
*1481 TAP_142
*1482 TAP_143
*1483 TAP_144
*1484 TAP_145
*1485 TAP_146
*1486 TAP_147
*1487 TAP_148
*1488 TAP_149
*1489 TAP_150
*1490 TAP_151
*1491 TAP_152
*1492 TAP_153
*1493 TAP_154
*1494 TAP_155
*1495 TAP_156
*1496 TAP_157
*1497 TAP_158
*1498 TAP_159
*1499 TAP_160
*1500 TAP_161
*1501 TAP_162
*1502 TAP_163
*1503 TAP_164
*1504 TAP_165
*1505 TAP_166
*1506 TAP_167
*1507 TAP_168
*1508 TAP_169
*1509 TAP_170
*1510 TAP_171
*1511 TAP_172
*1512 TAP_173
*1513 TAP_174
*1514 TAP_175
*1515 TAP_176
*1516 TAP_177
*1517 TAP_178
*1518 TAP_179
*1519 TAP_180
*1520 TAP_181
*1521 TAP_182
*1522 TAP_183
*1523 TAP_184
*1524 TAP_185
*1525 TAP_186
*1526 TAP_187
*1527 TAP_188
*1528 TAP_189
*1529 TAP_190
*1530 TAP_191
*1531 TAP_192
*1532 TAP_193
*1533 TAP_194
*1534 TAP_195
*1535 TAP_196
*1536 TAP_197
*1537 TAP_198
*1538 TAP_199
*1539 TAP_200
*1540 TAP_201
*1541 TAP_202
*1542 TAP_203
*1543 TAP_204
*1544 TAP_205
*1545 TAP_206
*1546 TAP_207
*1547 TAP_208
*1548 TAP_209
*1549 TAP_210
*1550 TAP_211
*1551 TAP_212
*1552 TAP_213
*1553 TAP_214
*1554 TAP_215
*1555 TAP_216
*1556 TAP_217
*1557 TAP_218
*1558 TAP_219
*1559 TAP_220
*1560 TAP_221
*1561 TAP_222
*1562 TAP_223
*1563 TAP_224
*1564 TAP_225
*1565 TAP_226
*1566 TAP_227
*1567 TAP_228
*1568 TAP_229
*1569 TAP_230
*1570 TAP_231
*1571 TAP_232
*1572 TAP_233
*1573 TAP_234
*1574 TAP_235
*1575 TAP_236
*1576 TAP_237
*1577 TAP_238
*1578 TAP_239
*1579 TAP_240
*1580 TAP_241
*1581 TAP_242
*1582 TAP_243
*1583 TAP_244
*1584 TAP_245
*1585 TAP_246
*1586 TAP_247
*1587 TAP_80
*1588 TAP_81
*1589 TAP_82
*1590 TAP_83
*1591 TAP_84
*1592 TAP_85
*1593 TAP_86
*1594 TAP_87
*1595 TAP_88
*1596 TAP_89
*1597 TAP_90
*1598 TAP_91
*1599 TAP_92
*1600 TAP_93
*1601 TAP_94
*1602 TAP_95
*1603 TAP_96
*1604 TAP_97
*1605 TAP_98
*1606 TAP_99
*1607 _358_
*1608 _359_
*1609 _360_
*1610 _361_
*1611 _362_
*1612 _363_
*1613 _364_
*1614 _365_
*1615 _366_
*1616 _367_
*1617 _368_
*1618 _369_
*1619 _370_
*1620 _371_
*1621 _372_
*1622 _373_
*1623 _374_
*1624 _375_
*1625 _376_
*1626 _377_
*1627 _378_
*1628 _379_
*1629 _380_
*1630 _381_
*1631 _382_
*1632 _383_
*1633 _384_
*1634 _385_
*1635 _386_
*1636 _387_
*1637 _388_
*1638 _389_
*1639 _390_
*1640 _391_
*1641 _392_
*1642 _393_
*1643 _394_
*1644 _395_
*1645 _396_
*1646 _397_
*1647 _398_
*1648 _399_
*1649 _400_
*1650 _401_
*1651 _402_
*1652 _403_
*1653 _404_
*1654 _405_
*1655 _406_
*1656 _407_
*1657 _408_
*1658 _409_
*1659 _410_
*1660 _411_
*1661 _412_
*1662 _413_
*1663 _414_
*1664 _415_
*1665 _416_
*1666 _417_
*1667 _418_
*1668 _419_
*1669 _420_
*1670 _421_
*1671 _422_
*1672 _423_
*1673 _424_
*1674 _425_
*1675 _426_
*1676 _427_
*1677 _428_
*1678 _429_
*1679 _430_
*1680 _431_
*1681 _432_
*1682 _433_
*1683 _434_
*1684 _435_
*1685 _436_
*1686 _437_
*1687 _438_
*1688 _439_
*1689 _440_
*1690 _441_
*1691 _442_
*1692 _443_
*1693 _444_
*1694 _445_
*1695 _446_
*1696 _447_
*1697 _448_
*1698 _449_
*1699 _450_
*1700 _451_
*1701 _452_
*1702 _453_
*1703 _454_
*1704 _455_
*1705 _456_
*1706 _457_
*1707 _458_
*1708 _459_
*1709 _460_
*1710 _461_
*1711 _462_
*1712 _463_
*1713 _464_
*1714 _465_
*1715 _466_
*1716 _467_
*1717 _468_
*1718 _469_
*1719 _470_
*1720 _471_
*1721 _472_
*1722 _473_
*1723 _474_
*1724 _475_
*1725 _476_
*1726 _477_
*1727 _478_
*1728 _479_
*1729 _480_
*1730 _481_
*1731 _482_
*1732 _483_
*1733 _484_
*1734 _485_
*1735 _486_
*1736 _487_
*1737 _488_
*1738 _489_
*1739 _490_
*1740 _491_
*1741 _492_
*1742 _493_
*1743 _494_
*1744 _495_
*1745 _496_
*1746 _497_
*1747 _498_
*1748 _499_
*1749 _500_
*1750 _501_
*1751 _502_
*1752 _503_
*1753 _504_
*1754 _505_
*1755 _506_
*1756 _507_
*1757 _508_
*1758 _509_
*1759 _510_
*1760 _511_
*1761 _512_
*1762 _513_
*1763 _514_
*1764 _515_
*1765 _516_
*1766 _517_
*1767 _518_
*1768 _519_
*1769 _520_
*1770 _521_
*1771 _522_
*1772 _523_
*1773 _524_
*1774 _525_
*1775 _526_
*1776 _527_
*1777 _528_
*1778 _529_
*1779 _530_
*1780 _531_
*1781 _532_
*1782 _533_
*1783 _534_
*1784 _535_
*1785 _536_
*1786 _537_
*1787 _538_
*1788 _539_
*1789 _540_
*1790 _541_
*1791 _542_
*1792 _543_
*1793 _544_
*1794 _545_
*1795 _546_
*1796 _547_
*1797 _548_
*1798 _549_
*1799 _550_
*1800 _551_
*1801 _552_
*1802 _553_
*1803 _554_
*1804 _555_
*1805 _556_
*1806 _557_
*1807 _558_
*1808 _559_
*1809 _560_
*1810 _561_
*1811 _562_
*1812 _563_
*1813 _564_
*1814 _565_
*1815 _566_
*1816 _567_
*1817 _568_
*1818 _569_
*1819 _570_
*1820 _571_
*1821 _572_
*1822 _573_
*1823 _574_
*1824 _575_
*1825 _576_
*1826 _577_
*1827 _578_