*SPEF "ieee 1481-1999"
*DESIGN "kogge"
*DATE "11:11:11 Fri 11 11, 1111"
*VENDOR "OpenRCX"
*PROGRAM "Parallel Extraction"
*VERSION "1.0"
*DESIGN_FLOW "NAME_SCOPE LOCAL" "PIN_CAP NONE"
*DIVIDER /
*DELIMITER :
*BUS_DELIMITER []
*T_UNIT 1 NS
*C_UNIT 1 PF
*R_UNIT 1 OHM
*L_UNIT 1 HENRY

*NAME_MAP
*1 A[0]
*2 A[10]
*3 A[11]
*4 A[12]
*5 A[13]
*6 A[14]
*7 A[15]
*8 A[1]
*9 A[2]
*10 A[3]
*11 A[4]
*12 A[5]
*13 A[6]
*14 A[7]
*15 A[8]
*16 A[9]
*17 B[0]
*18 B[10]
*19 B[11]
*20 B[12]
*21 B[13]
*22 B[14]
*23 B[15]
*24 B[1]
*25 B[2]
*26 B[3]
*27 B[4]
*28 B[5]
*29 B[6]
*30 B[7]
*31 B[8]
*32 B[9]
*33 SUM[0]
*34 SUM[10]
*35 SUM[11]
*36 SUM[12]
*37 SUM[13]
*38 SUM[14]
*39 SUM[15]
*40 SUM[1]
*41 SUM[2]
*42 SUM[3]
*43 SUM[4]
*44 SUM[5]
*45 SUM[6]
*46 SUM[7]
*47 SUM[8]
*48 SUM[9]
*51 _000_
*52 _001_
*53 _002_
*54 _003_
*55 _004_
*56 _005_
*57 _006_
*58 _007_
*59 _008_
*60 _009_
*61 _010_
*62 _011_
*63 _012_
*64 _013_
*65 _014_
*66 _015_
*67 _016_
*68 _017_
*69 _018_
*70 _019_
*71 _020_
*72 _021_
*73 _022_
*74 _023_
*75 _024_
*76 _025_
*77 _026_
*78 _027_
*79 _028_
*80 _029_
*81 _030_
*82 _031_
*83 _032_
*84 _033_
*85 _034_
*86 _035_
*87 _036_
*88 _037_
*89 _038_
*90 _039_
*91 _040_
*92 _041_
*93 _042_
*94 _043_
*95 _044_
*96 _045_
*97 _046_
*98 _047_
*99 _048_
*100 _049_
*101 _050_
*102 _051_
*103 _052_
*104 _053_
*105 _054_
*106 _055_
*107 _056_
*108 _057_
*109 _058_
*110 _059_
*111 _060_
*112 _061_
*113 _062_
*114 _063_
*115 _064_
*116 _065_
*117 _066_
*118 _067_
*119 _068_
*120 _069_
*121 _070_
*122 _071_
*123 _072_
*124 _073_
*125 _074_
*126 _075_
*127 _076_
*128 _077_
*129 _078_
*130 _079_
*131 _080_
*132 _081_
*133 _082_
*134 _083_
*135 _084_
*136 _085_
*137 _086_
*138 _087_
*139 _088_
*140 _089_
*141 _090_
*142 _091_
*143 _092_
*144 _093_
*145 net1
*146 net10
*147 net11
*148 net12
*149 net13
*150 net14
*151 net15
*152 net16
*153 net17
*154 net18
*155 net19
*156 net2
*157 net20
*158 net21
*159 net22
*160 net23
*161 net24
*162 net25
*163 net26
*164 net27
*165 net28
*166 net29
*167 net3
*168 net30
*169 net31
*170 net32
*171 net33
*172 net34
*173 net35
*174 net36
*175 net37
*176 net38
*177 net39
*178 net4
*179 net40
*180 net41
*181 net42
*182 net43
*183 net44
*184 net45
*185 net46
*186 net47
*187 net48
*188 net5
*189 net6
*190 net7
*191 net8
*192 net9
*193 FILLER_0_0_107
*194 FILLER_0_0_111
*195 FILLER_0_0_113
*196 FILLER_0_0_119
*197 FILLER_0_0_25
*198 FILLER_0_0_35
*199 FILLER_0_0_43
*200 FILLER_0_0_49
*201 FILLER_0_0_55
*202 FILLER_0_0_63
*203 FILLER_0_0_7
*204 FILLER_0_0_71
*205 FILLER_0_0_79
*206 FILLER_0_0_83
*207 FILLER_0_0_85
*208 FILLER_0_0_91
*209 FILLER_0_0_99
*210 FILLER_0_10_102
*211 FILLER_0_10_120
*212 FILLER_0_10_126
*213 FILLER_0_10_18
*214 FILLER_0_10_26
*215 FILLER_0_10_29
*216 FILLER_0_10_41
*217 FILLER_0_10_54
*218 FILLER_0_10_6
*219 FILLER_0_10_64
*220 FILLER_0_10_72
*221 FILLER_0_10_82
*222 FILLER_0_10_90
*223 FILLER_0_11_113
*224 FILLER_0_11_123
*225 FILLER_0_11_15
*226 FILLER_0_11_27
*227 FILLER_0_11_3
*228 FILLER_0_11_39
*229 FILLER_0_11_51
*230 FILLER_0_11_55
*231 FILLER_0_11_57
*232 FILLER_0_11_63
*233 FILLER_0_11_67
*234 FILLER_0_11_77
*235 FILLER_0_11_89
*236 FILLER_0_12_105
*237 FILLER_0_12_110
*238 FILLER_0_12_122
*239 FILLER_0_12_126
*240 FILLER_0_12_19
*241 FILLER_0_12_27
*242 FILLER_0_12_29
*243 FILLER_0_12_41
*244 FILLER_0_12_45
*245 FILLER_0_12_58
*246 FILLER_0_12_64
*247 FILLER_0_12_69
*248 FILLER_0_12_7
*249 FILLER_0_12_81
*250 FILLER_0_12_85
*251 FILLER_0_12_97
*252 FILLER_0_13_101
*253 FILLER_0_13_109
*254 FILLER_0_13_11
*255 FILLER_0_13_113
*256 FILLER_0_13_125
*257 FILLER_0_13_20
*258 FILLER_0_13_28
*259 FILLER_0_13_3
*260 FILLER_0_13_36
*261 FILLER_0_13_42
*262 FILLER_0_13_65
*263 FILLER_0_13_77
*264 FILLER_0_13_89
*265 FILLER_0_14_109
*266 FILLER_0_14_118
*267 FILLER_0_14_130
*268 FILLER_0_14_20
*269 FILLER_0_14_29
*270 FILLER_0_14_3
*271 FILLER_0_14_41
*272 FILLER_0_14_53
*273 FILLER_0_14_65
*274 FILLER_0_14_77
*275 FILLER_0_14_83
*276 FILLER_0_14_97
*277 FILLER_0_15_107
*278 FILLER_0_15_111
*279 FILLER_0_15_117
*280 FILLER_0_15_125
*281 FILLER_0_15_18
*282 FILLER_0_15_30
*283 FILLER_0_15_42
*284 FILLER_0_15_54
*285 FILLER_0_15_57
*286 FILLER_0_15_69
*287 FILLER_0_15_7
*288 FILLER_0_15_78
*289 FILLER_0_15_95
*290 FILLER_0_16_100
*291 FILLER_0_16_112
*292 FILLER_0_16_126
*293 FILLER_0_16_130
*294 FILLER_0_16_18
*295 FILLER_0_16_26
*296 FILLER_0_16_29
*297 FILLER_0_16_3
*298 FILLER_0_16_42
*299 FILLER_0_16_54
*300 FILLER_0_16_66
*301 FILLER_0_17_105
*302 FILLER_0_17_111
*303 FILLER_0_17_113
*304 FILLER_0_17_122
*305 FILLER_0_17_126
*306 FILLER_0_17_20
*307 FILLER_0_17_32
*308 FILLER_0_17_36
*309 FILLER_0_17_40
*310 FILLER_0_17_51
*311 FILLER_0_17_55
*312 FILLER_0_17_57
*313 FILLER_0_17_69
*314 FILLER_0_17_7
*315 FILLER_0_17_81
*316 FILLER_0_17_93
*317 FILLER_0_18_102
*318 FILLER_0_18_114
*319 FILLER_0_18_126
*320 FILLER_0_18_130
*321 FILLER_0_18_3
*322 FILLER_0_18_37
*323 FILLER_0_18_46
*324 FILLER_0_18_55
*325 FILLER_0_18_63
*326 FILLER_0_18_79
*327 FILLER_0_18_83
*328 FILLER_0_18_90
*329 FILLER_0_19_105
*330 FILLER_0_19_111
*331 FILLER_0_19_126
*332 FILLER_0_19_15
*333 FILLER_0_19_27
*334 FILLER_0_19_3
*335 FILLER_0_19_52
*336 FILLER_0_19_57
*337 FILLER_0_19_69
*338 FILLER_0_19_81
*339 FILLER_0_19_93
*340 FILLER_0_1_101
*341 FILLER_0_1_109
*342 FILLER_0_1_113
*343 FILLER_0_1_119
*344 FILLER_0_1_123
*345 FILLER_0_1_19
*346 FILLER_0_1_25
*347 FILLER_0_1_39
*348 FILLER_0_1_51
*349 FILLER_0_1_55
*350 FILLER_0_1_57
*351 FILLER_0_1_61
*352 FILLER_0_1_69
*353 FILLER_0_1_7
*354 FILLER_0_1_81
*355 FILLER_0_1_89
*356 FILLER_0_1_93
*357 FILLER_0_20_104
*358 FILLER_0_20_116
*359 FILLER_0_20_12
*360 FILLER_0_20_122
*361 FILLER_0_20_24
*362 FILLER_0_20_29
*363 FILLER_0_20_41
*364 FILLER_0_20_54
*365 FILLER_0_20_66
*366 FILLER_0_20_74
*367 FILLER_0_20_92
*368 FILLER_0_21_105
*369 FILLER_0_21_111
*370 FILLER_0_21_113
*371 FILLER_0_21_129
*372 FILLER_0_21_14
*373 FILLER_0_21_23
*374 FILLER_0_21_27
*375 FILLER_0_21_29
*376 FILLER_0_21_37
*377 FILLER_0_21_55
*378 FILLER_0_21_57
*379 FILLER_0_21_62
*380 FILLER_0_21_70
*381 FILLER_0_21_79
*382 FILLER_0_21_83
*383 FILLER_0_21_85
*384 FILLER_0_21_91
*385 FILLER_0_21_99
*386 FILLER_0_2_108
*387 FILLER_0_2_11
*388 FILLER_0_2_124
*389 FILLER_0_2_23
*390 FILLER_0_2_27
*391 FILLER_0_2_29
*392 FILLER_0_2_39
*393 FILLER_0_2_46
*394 FILLER_0_2_54
*395 FILLER_0_2_66
*396 FILLER_0_2_78
*397 FILLER_0_2_85
*398 FILLER_0_3_109
*399 FILLER_0_3_113
*400 FILLER_0_3_125
*401 FILLER_0_3_15
*402 FILLER_0_3_27
*403 FILLER_0_3_3
*404 FILLER_0_3_39
*405 FILLER_0_3_75
*406 FILLER_0_3_87
*407 FILLER_0_3_97
*408 FILLER_0_4_109
*409 FILLER_0_4_122
*410 FILLER_0_4_130
*411 FILLER_0_4_18
*412 FILLER_0_4_27
*413 FILLER_0_4_29
*414 FILLER_0_4_3
*415 FILLER_0_4_33
*416 FILLER_0_4_41
*417 FILLER_0_4_53
*418 FILLER_0_4_65
*419 FILLER_0_4_77
*420 FILLER_0_4_83
*421 FILLER_0_4_85
*422 FILLER_0_4_97
*423 FILLER_0_5_111
*424 FILLER_0_5_120
*425 FILLER_0_5_126
*426 FILLER_0_5_18
*427 FILLER_0_5_39
*428 FILLER_0_5_51
*429 FILLER_0_5_55
*430 FILLER_0_5_57
*431 FILLER_0_5_6
*432 FILLER_0_5_74
*433 FILLER_0_5_80
*434 FILLER_0_5_99
*435 FILLER_0_6_105
*436 FILLER_0_6_124
*437 FILLER_0_6_130
*438 FILLER_0_6_22
*439 FILLER_0_6_3
*440 FILLER_0_6_36
*441 FILLER_0_6_47
*442 FILLER_0_6_59
*443 FILLER_0_6_67
*444 FILLER_0_6_74
*445 FILLER_0_6_82
*446 FILLER_0_6_85
*447 FILLER_0_6_97
*448 FILLER_0_7_105
*449 FILLER_0_7_111
*450 FILLER_0_7_113
*451 FILLER_0_7_125
*452 FILLER_0_7_21
*453 FILLER_0_7_33
*454 FILLER_0_7_45
*455 FILLER_0_7_53
*456 FILLER_0_7_57
*457 FILLER_0_7_71
*458 FILLER_0_7_81
*459 FILLER_0_7_9
*460 FILLER_0_7_93
*461 FILLER_0_8_109
*462 FILLER_0_8_121
*463 FILLER_0_8_129
*464 FILLER_0_8_15
*465 FILLER_0_8_27
*466 FILLER_0_8_3
*467 FILLER_0_8_42
*468 FILLER_0_8_55
*469 FILLER_0_8_67
*470 FILLER_0_8_79
*471 FILLER_0_8_83
*472 FILLER_0_8_85
*473 FILLER_0_8_97
*474 FILLER_0_9_110
*475 FILLER_0_9_126
*476 FILLER_0_9_130
*477 FILLER_0_9_19
*478 FILLER_0_9_28
*479 FILLER_0_9_3
*480 FILLER_0_9_40
*481 FILLER_0_9_52
*482 FILLER_0_9_57
*483 FILLER_0_9_65
*484 FILLER_0_9_77
*485 FILLER_0_9_89
*486 FILLER_0_9_98
*487 PHY_0
*488 PHY_1
*489 PHY_10
*490 PHY_11
*491 PHY_12
*492 PHY_13
*493 PHY_14
*494 PHY_15
*495 PHY_16
*496 PHY_17
*497 PHY_18
*498 PHY_19
*499 PHY_2
*500 PHY_20
*501 PHY_21
*502 PHY_22
*503 PHY_23
*504 PHY_24
*505 PHY_25
*506 PHY_26
*507 PHY_27
*508 PHY_28
*509 PHY_29
*510 PHY_3
*511 PHY_30
*512 PHY_31
*513 PHY_32
*514 PHY_33
*515 PHY_34
*516 PHY_35
*517 PHY_36
*518 PHY_37
*519 PHY_38
*520 PHY_39
*521 PHY_4
*522 PHY_40
*523 PHY_41
*524 PHY_42
*525 PHY_43
*526 PHY_5
*527 PHY_6
*528 PHY_7
*529 PHY_8
*530 PHY_9
*531 TAP_44
*532 TAP_45
*533 TAP_46
*534 TAP_47
*535 TAP_48
*536 TAP_49
*537 TAP_50
*538 TAP_51
*539 TAP_52
*540 TAP_53
*541 TAP_54
*542 TAP_55
*543 TAP_56
*544 TAP_57
*545 TAP_58
*546 TAP_59
*547 TAP_60
*548 TAP_61
*549 TAP_62
*550 TAP_63
*551 TAP_64
*552 TAP_65
*553 TAP_66
*554 TAP_67
*555 TAP_68
*556 TAP_69
*557 TAP_70
*558 TAP_71
*559 TAP_72
*560 TAP_73
*561 TAP_74
*562 TAP_75
*563 TAP_76
*564 TAP_77
*565 TAP_78
*566 TAP_79
*567 TAP_80
*568 TAP_81
*569 TAP_82
*570 TAP_83
*571 TAP_84
*572 TAP_85
*573 TAP_86
*574 TAP_87
*575 TAP_88
*576 TAP_89
*577 TAP_90
*578 TAP_91
*579 _094_
*580 _095_
*581 _096_
*582 _097_
*583 _098_
*584 _099_
*585 _100_
*586 _101_
*587 _102_
*588 _103_
*589 _104_
*590 _105_
*591 _106_
*592 _107_
*593 _108_
*594 _109_
*595 _110_
*596 _111_
*597 _112_
*598 _113_
*599 _114_
*600 _115_
*601 _116_
*602 _117_
*603 _118_
*604 _119_
*605 _120_
*606 _121_
*607 _122_
*608 _123_
*609 _124_
*610 _125_
*611 _126_
*612 _127_
*613 _128_
*614 _129_
*615 _130_
*616 _131_
*617 _132_
*618 _133_
*619 _134_
*620 _135_
*621 _136_
*622 _137_
*623 _138_
*624 _139_
*625 _140_
*626 _141_
*627 _142_
*628 _143_
*629 _144_
*630 _145_
*631 _146_
*632 _147_
*633 _148_
*634 _149_
*635 _150_
*636 _151_
*637 _152_
*638 _153_
*639 _154_
*640 _155_
*641 _156_
*642 _157_
*643 _158_
*644 _159_
*645 _160_
*646 _161_
*647 _162_
*648 _163_
*649 _164_
*650 _165_
*651 _166_
*652 _167_
*653 _168_
*654 _169_
*655 _170_
*656 _171_
*657 _172_
*658 _173_
*659 _174_
*660 _175_
*661 _176_
*662 _177_
*663 _178_
*664 _179_
*665 _180_
*666 _181_
*667 _182_
*668 _183_
*669 _184_
*670 _185_
*671 _186_
*672 _187_
*673 _188_
*674 _189_
*675 _190_
*676 _191_
*677 _192_
*678 _193_
*679 _194_
*680 _195_
*681 _196_
*682 _197_
*683 _198_
*684 _199_
*685 _200_
*686 _201_
*687 _202_
*688 _203_
*689 input1
*690 input10
*691 input11
*692 input12
*693 input13
*694 input14
*695 input15
*696 input16
*697 input17
*698 input18
*699 input19
*700 input2
*701 input20
*702 input21
*703 input22
*704 input23
*705 input24
*706 input25
*707 input26
*708 input27
*709 input28
*710 input29
*711 input3
*712 input30
*713 input31
*714 input32
*715 input4
*716 input5
*717 input6
*718 input7
*719 input8
*720 input9
*721 output33
*722 output34
*723 output35
*724 output36
*725 output37
*726 output38
*727 output39
*728 output40
*729 output41
*730 output42
*731 output43
*732 output44
*733 output45
*734 output46
*735 output47
*736 output48

*PORTS
A[0] I
A[10] I
A[11] I
A[12] I
A[13] I
A[14] I
A[15] I
A[1] I
A[2] I
A[3] I
A[4] I
A[5] I
A[6] I
A[7] I
A[8] I
A[9] I
B[0] I
B[10] I
B[11] I
B[12] I
B[13] I
B[14] I
B[15] I
B[1] I
B[2] I
B[3] I
B[4] I
B[5] I
B[6] I
B[7] I
B[8] I
B[9] I
SUM[0] O
SUM[10] O
SUM[11] O
SUM[12] O
SUM[13] O
SUM[14] O
SUM[15] O
SUM[1] O
SUM[2] O
SUM[3] O
SUM[4] O
SUM[5] O
SUM[6] O
SUM[7] O
SUM[8] O
SUM[9] O

*D_NET *1 0.000877873
*CONN
*P A[0] I
*I *689:A I *D sky130_fd_sc_hd__buf_1
*CAP
1 A[0] 0.000396288
2 *689:A 0.000396288
3 *689:A SUM[8] 0
4 *689:A *690:A 0
5 *689:A *711:A 0
6 *689:A *735:A 8.52972e-05
7 *689:A *146:14 0
*RES
1 A[0] *689:A 9.1887 
*END

*D_NET *2 0.000975505
*CONN
*P A[10] I
*I *700:A I *D sky130_fd_sc_hd__clkbuf_2
*CAP
1 A[10] 0.000462403
2 *700:A 0.000462403
3 *700:A SUM[0] 0
4 *700:A *691:A 0
5 *700:A *697:A 0
6 *700:A *718:A 0
7 *700:A *156:18 5.06989e-05
*RES
1 A[10] *700:A 9.8637 
*END

*D_NET *3 0.000514753
*CONN
*P A[11] I
*I *711:A I *D sky130_fd_sc_hd__clkbuf_2
*CAP
1 A[11] 0.000257377
2 *711:A 0.000257377
3 *711:A *699:A 0
4 *689:A *711:A 0
*RES
1 A[11] *711:A 6.98543 
*END

*D_NET *4 0.00100913
*CONN
*P A[12] I
*I *715:A I *D sky130_fd_sc_hd__clkbuf_2
*CAP
1 A[12] 0.000504564
2 *715:A 0.000504564
3 *715:A SUM[3] 0
*RES
1 A[12] *715:A 13.65 
*END

*D_NET *5 0.000544137
*CONN
*P A[13] I
*I *716:A I *D sky130_fd_sc_hd__clkbuf_2
*CAP
1 A[13] 0.00022877
2 *716:A 0.00022877
3 *716:A *692:A 0
4 *716:A *708:A 8.65961e-05
5 *716:A *709:A 0
6 *716:A *719:A 0
*RES
1 A[13] *716:A 6.73043 
*END

*D_NET *6 0.00152134
*CONN
*P A[14] I
*I *717:A I *D sky130_fd_sc_hd__buf_1
*CAP
1 A[14] 0.000639996
2 *717:A 0.000639996
3 *717:A SUM[8] 5.60825e-05
4 *717:A *690:A 8.52972e-05
5 *717:A *701:A 0
6 *717:A *146:14 7.11301e-05
7 *717:A *157:10 2.88357e-05
*RES
1 A[14] *717:A 14.85 
*END

*D_NET *7 0.000449681
*CONN
*P A[15] I
*I *718:A I *D sky130_fd_sc_hd__buf_1
*CAP
1 A[15] 0.000221752
2 *718:A 0.000221752
3 *718:A *720:A 0
4 *718:A *156:18 6.17587e-06
5 *700:A *718:A 0
*RES
1 A[15] *718:A 6.0987 
*END

*D_NET *8 0.000588927
*CONN
*P A[1] I
*I *719:A I *D sky130_fd_sc_hd__buf_1
*CAP
1 A[1] 0.000294463
2 *719:A 0.000294463
3 *719:A SUM[7] 0
4 *719:A *188:16 0
5 *719:A *191:14 0
6 *716:A *719:A 0
*RES
1 A[1] *719:A 7.66043 
*END

*D_NET *9 0.000662747
*CONN
*P A[2] I
*I *720:A I *D sky130_fd_sc_hd__clkbuf_2
*CAP
1 A[2] 0.000308957
2 *720:A 0.000308957
3 *720:A SUM[11] 0
4 *720:A *156:18 4.4833e-05
5 *718:A *720:A 0
*RES
1 A[2] *720:A 7.7187 
*END

*D_NET *10 0.00161166
*CONN
*P A[3] I
*I *690:A I *D sky130_fd_sc_hd__clkbuf_2
*CAP
1 A[3] 0.000763182
2 *690:A 0.000763182
3 *689:A *690:A 0
4 *717:A *690:A 8.52972e-05
*RES
1 A[3] *690:A 17.16 
*END

*D_NET *11 0.00148469
*CONN
*P A[4] I
*I *691:A I *D sky130_fd_sc_hd__clkbuf_2
*CAP
1 A[4] 0.000740262
2 *691:A 0.000740262
3 *691:A *695:A 0
4 *691:A *697:A 0
5 *691:A *721:A 4.1652e-06
6 *700:A *691:A 0
*RES
1 A[4] *691:A 11.8829 
*END

*D_NET *12 0.000597597
*CONN
*P A[5] I
*I *692:A I *D sky130_fd_sc_hd__clkbuf_2
*CAP
1 A[5] 0.000298799
2 *692:A 0.000298799
3 *692:A SUM[15] 0
4 *692:A *708:A 0
5 *692:A *709:A 0
6 *716:A *692:A 0
*RES
1 A[5] *692:A 7.49543 
*END

*D_NET *13 0.000560903
*CONN
*P A[6] I
*I *693:A I *D sky130_fd_sc_hd__clkbuf_2
*CAP
1 A[6] 0.000259982
2 *693:A 0.000259982
3 *693:A *712:A 0
4 *693:A *714:A 0
5 *693:A *730:A 4.0939e-05
*RES
1 A[6] *693:A 6.6987 
*END

*D_NET *14 0.000773657
*CONN
*P A[7] I
*I *694:A I *D sky130_fd_sc_hd__clkbuf_2
*CAP
1 A[7] 0.000386829
2 *694:A 0.000386829
*RES
1 A[7] *694:A 10.545 
*END

*D_NET *15 0.000839685
*CONN
*P A[8] I
*I *695:A I *D sky130_fd_sc_hd__clkbuf_2
*CAP
1 A[8] 0.000419842
2 *695:A 0.000419842
3 *691:A *695:A 0
*RES
1 A[8] *695:A 12.12 
*END

*D_NET *16 0.00139528
*CONN
*P A[9] I
*I *696:A I *D sky130_fd_sc_hd__clkbuf_2
*CAP
1 A[9] 0.000498926
2 *696:A 0.000498926
3 *696:A SUM[3] 0
4 *696:A *698:A 0
5 *696:A *712:A 0.000123961
6 *696:A *730:A 0.000201739
7 *696:A *168:18 7.17286e-05
*RES
1 A[9] *696:A 11.0752 
*END

*D_NET *17 0.00113075
*CONN
*P B[0] I
*I *697:A I *D sky130_fd_sc_hd__clkbuf_1
*CAP
1 B[0] 0.000513387
2 *697:A 0.000513387
3 *697:A *721:A 0.000103974
4 *691:A *697:A 0
5 *700:A *697:A 0
*RES
1 B[0] *697:A 13.095 
*END

*D_NET *18 0.00175163
*CONN
*P B[10] I
*I *698:A I *D sky130_fd_sc_hd__clkbuf_2
*CAP
1 B[10] 0.000803503
2 *698:A 0.000803503
3 *698:A SUM[2] 0
4 *698:A SUM[3] 0
5 *698:A *712:A 4.93316e-05
6 *698:A *730:A 9.52876e-05
7 *696:A *698:A 0
*RES
1 B[10] *698:A 17.4722 
*END

*D_NET *19 0.000627119
*CONN
*P B[11] I
*I *699:A I *D sky130_fd_sc_hd__clkbuf_2
*CAP
1 B[11] 0.000313559
2 *699:A 0.000313559
3 *699:A *707:A 0
4 *699:A *188:16 0
5 *711:A *699:A 0
*RES
1 B[11] *699:A 8.00543 
*END

*D_NET *20 0.00150813
*CONN
*P B[12] I
*I *701:A I *D sky130_fd_sc_hd__clkbuf_2
*CAP
1 B[12] 0.000754065
2 *701:A 0.000754065
3 *701:A SUM[4] 0
4 *701:A SUM[8] 0
5 *717:A *701:A 0
*RES
1 B[12] *701:A 10.5725 
*END

*D_NET *21 0.0010318
*CONN
*P B[13] I
*I *702:A I *D sky130_fd_sc_hd__clkbuf_2
*CAP
1 B[13] 0.0005159
2 *702:A 0.0005159
*RES
1 B[13] *702:A 12.525 
*END

*D_NET *22 0.00111183
*CONN
*P B[14] I
*I *703:A I *D sky130_fd_sc_hd__buf_1
*CAP
1 B[14] 0.00051914
2 *703:A 0.00051914
3 *703:A *158:20 2.57814e-05
4 *703:A *161:18 4.77719e-05
*RES
1 B[14] *703:A 12.885 
*END

*D_NET *23 0.000546774
*CONN
*P B[15] I
*I *704:A I *D sky130_fd_sc_hd__clkbuf_1
*CAP
1 B[15] 0.000273387
2 *704:A 0.000273387
3 *704:A SUM[7] 0
4 *704:A *687:A 0
5 *704:A *707:A 0
6 *704:A *188:16 0
*RES
1 B[15] *704:A 7.40543 
*END

*D_NET *24 0.000937693
*CONN
*P B[1] I
*I *705:A I *D sky130_fd_sc_hd__dlymetal6s2s_1
*CAP
1 B[1] 0.000468847
2 *705:A 0.000468847
*RES
1 B[1] *705:A 11.985 
*END

*D_NET *25 0.000951162
*CONN
*P B[2] I
*I *706:A I *D sky130_fd_sc_hd__clkbuf_2
*CAP
1 B[2] 0.000475581
2 *706:A 0.000475581
*RES
1 B[2] *706:A 12.075 
*END

*D_NET *26 0.000500749
*CONN
*P B[3] I
*I *707:A I *D sky130_fd_sc_hd__clkbuf_2
*CAP
1 B[3] 0.000250374
2 *707:A 0.000250374
3 *699:A *707:A 0
4 *704:A *707:A 0
*RES
1 B[3] *707:A 6.73043 
*END

*D_NET *27 0.00167317
*CONN
*P B[4] I
*I *708:A I *D sky130_fd_sc_hd__clkbuf_2
*CAP
1 B[4] 0.000789983
2 *708:A 0.000789983
3 *708:A *727:A 0
4 *708:A *165:12 0
5 *708:A *188:16 6.60261e-06
6 *692:A *708:A 0
7 *716:A *708:A 8.65961e-05
*RES
1 B[4] *708:A 16.005 
*END

*D_NET *28 0.00165692
*CONN
*P B[5] I
*I *709:A I *D sky130_fd_sc_hd__clkbuf_2
*CAP
1 B[5] 0.00082846
2 *709:A 0.00082846
3 *692:A *709:A 0
4 *716:A *709:A 0
*RES
1 B[5] *709:A 17.82 
*END

*D_NET *29 0.000555402
*CONN
*P B[6] I
*I *710:A I *D sky130_fd_sc_hd__clkbuf_2
*CAP
1 B[6] 0.000268309
2 *710:A 0.000268309
3 *710:A SUM[9] 0
4 *710:A *714:A 0
5 *710:A *730:A 1.87841e-05
*RES
1 B[6] *710:A 6.4437 
*END

*D_NET *30 0.000794462
*CONN
*P B[7] I
*I *712:A I *D sky130_fd_sc_hd__clkbuf_2
*CAP
1 B[7] 0.000269946
2 *712:A 0.000269946
3 *712:A *730:A 8.12775e-05
4 *693:A *712:A 0
5 *696:A *712:A 0.000123961
6 *698:A *712:A 4.93316e-05
*RES
1 B[7] *712:A 7.2087 
*END

*D_NET *31 0.000773657
*CONN
*P B[8] I
*I *713:A I *D sky130_fd_sc_hd__clkbuf_2
*CAP
1 B[8] 0.000386829
2 *713:A 0.000386829
*RES
1 B[8] *713:A 10.545 
*END

*D_NET *32 0.000776628
*CONN
*P B[9] I
*I *714:A I *D sky130_fd_sc_hd__clkbuf_2
*CAP
1 B[9] 0.000282872
2 *714:A 0.000282872
3 *714:A *730:A 0.000125599
4 *714:A *156:18 8.52845e-05
5 *693:A *714:A 0
6 *710:A *714:A 0
*RES
1 B[9] *714:A 7.7187 
*END

*D_NET *33 0.00122988
*CONN
*P SUM[0] O
*I *721:X O *D sky130_fd_sc_hd__clkbuf_4
*CAP
1 SUM[0] 0.000614942
2 *721:X 0.000614942
3 *700:A SUM[0] 0
*RES
1 *721:X SUM[0] 13.89 
*END

*D_NET *34 0.0010004
*CONN
*P SUM[10] O
*I *722:X O *D sky130_fd_sc_hd__clkbuf_4
*CAP
1 SUM[10] 0.000490186
2 *722:X 0.000490186
3 SUM[10] *158:20 2.00249e-05
*RES
1 *722:X SUM[10] 11.925 
*END

*D_NET *35 0.000587945
*CONN
*P SUM[11] O
*I *723:X O *D sky130_fd_sc_hd__buf_2
*CAP
1 SUM[11] 0.000288925
2 *723:X 0.000288925
3 SUM[11] SUM[9] 0
4 SUM[11] *156:18 1.00941e-05
5 *720:A SUM[11] 0
*RES
1 *723:X SUM[11] 4.90503 
*END

*D_NET *36 0.00104305
*CONN
*P SUM[12] O
*I *724:X O *D sky130_fd_sc_hd__clkbuf_4
*CAP
1 SUM[12] 0.000419451
2 *724:X 0.000419451
3 SUM[12] SUM[15] 0.000176638
4 SUM[12] *724:A 2.75145e-05
*RES
1 *724:X SUM[12] 11.43 
*END

*D_NET *37 0.000662576
*CONN
*P SUM[13] O
*I *725:X O *D sky130_fd_sc_hd__clkbuf_4
*CAP
1 SUM[13] 0.000331288
2 *725:X 0.000331288
3 SUM[13] SUM[15] 0
*RES
1 *725:X SUM[13] 9.39 
*END

*D_NET *38 0.000745566
*CONN
*P SUM[14] O
*I *726:X O *D sky130_fd_sc_hd__clkbuf_4
*CAP
1 SUM[14] 0.000372783
2 *726:X 0.000372783
*RES
1 *726:X SUM[14] 10.29 
*END

*D_NET *39 0.00217579
*CONN
*P SUM[15] O
*I *727:X O *D sky130_fd_sc_hd__clkbuf_4
*CAP
1 SUM[15] 0.00096091
2 *727:X 0.00096091
3 SUM[15] *724:A 7.73272e-05
4 SUM[12] SUM[15] 0.000176638
5 SUM[13] SUM[15] 0
6 *692:A SUM[15] 0
*RES
1 *727:X SUM[15] 13.9523 
*END

*D_NET *40 0.000807617
*CONN
*P SUM[1] O
*I *728:X O *D sky130_fd_sc_hd__clkbuf_4
*CAP
1 SUM[1] 0.000403809
2 *728:X 0.000403809
*RES
1 *728:X SUM[1] 11.865 
*END

*D_NET *41 0.00191682
*CONN
*P SUM[2] O
*I *729:X O *D sky130_fd_sc_hd__clkbuf_4
*CAP
1 SUM[2] 0.000779651
2 *729:X 0.000779651
3 SUM[2] SUM[3] 4.89295e-05
4 SUM[2] *730:A 0.000308589
5 *698:A SUM[2] 0
*RES
1 *729:X SUM[2] 17.595 
*END

*D_NET *42 0.00105168
*CONN
*P SUM[3] O
*I *730:X O *D sky130_fd_sc_hd__buf_2
*CAP
1 SUM[3] 0.000501377
2 *730:X 0.000501377
3 SUM[2] SUM[3] 4.89295e-05
4 *696:A SUM[3] 0
5 *698:A SUM[3] 0
6 *715:A SUM[3] 0
*RES
1 *730:X SUM[3] 12.27 
*END

*D_NET *43 0.00111413
*CONN
*P SUM[4] O
*I *731:X O *D sky130_fd_sc_hd__clkbuf_4
*CAP
1 SUM[4] 0.000544377
2 *731:X 0.000544377
3 SUM[4] *189:14 2.53714e-05
4 *701:A SUM[4] 0
*RES
1 *731:X SUM[4] 13.095 
*END

*D_NET *44 0.00105396
*CONN
*P SUM[5] O
*I *732:X O *D sky130_fd_sc_hd__clkbuf_4
*CAP
1 SUM[5] 0.000522817
2 *732:X 0.000522817
3 SUM[5] *189:14 8.33066e-06
*RES
1 *732:X SUM[5] 12.06 
*END

*D_NET *45 0.000807617
*CONN
*P SUM[6] O
*I *733:X O *D sky130_fd_sc_hd__clkbuf_4
*CAP
1 SUM[6] 0.000403809
2 *733:X 0.000403809
*RES
1 *733:X SUM[6] 11.865 
*END

*D_NET *46 0.000469822
*CONN
*P SUM[7] O
*I *734:X O *D sky130_fd_sc_hd__clkbuf_4
*CAP
1 SUM[7] 0.000234911
2 *734:X 0.000234911
3 SUM[7] *188:16 0
4 *704:A SUM[7] 0
5 *719:A SUM[7] 0
*RES
1 *734:X SUM[7] 6.64043 
*END

*D_NET *47 0.000894285
*CONN
*P SUM[8] O
*I *735:X O *D sky130_fd_sc_hd__clkbuf_4
*CAP
1 SUM[8] 0.000419101
2 *735:X 0.000419101
3 *689:A SUM[8] 0
4 *701:A SUM[8] 0
5 *717:A SUM[8] 5.60825e-05
*RES
1 *735:X SUM[8] 7.96503 
*END

*D_NET *48 0.000691809
*CONN
*P SUM[9] O
*I *736:X O *D sky130_fd_sc_hd__buf_2
*CAP
1 SUM[9] 0.000316284
2 *736:X 0.000316284
3 SUM[9] *730:A 5.92416e-05
4 SUM[11] SUM[9] 0
5 *710:A SUM[9] 0
*RES
1 *736:X SUM[9] 6.9537 
*END

*D_NET *51 0.00829385
*CONN
*I *643:B I *D sky130_fd_sc_hd__nor2_1
*I *648:A I *D sky130_fd_sc_hd__or2_1
*I *638:A I *D sky130_fd_sc_hd__xnor2_1
*I *642:A3 I *D sky130_fd_sc_hd__o31ai_1
*I *631:Y O *D sky130_fd_sc_hd__xnor2_2
*CAP
1 *643:B 0.000292706
2 *648:A 0.000418522
3 *638:A 0.000444868
4 *642:A3 0.000364879
5 *631:Y 0
6 *51:58 0.00132411
7 *51:29 0.00165367
8 *51:4 0.000960803
9 *638:A *149:36 0.000483307
10 *638:A *166:10 2.01259e-05
11 *638:A *168:31 3.64998e-06
12 *638:A *180:22 0
13 *642:A3 *642:A1 8.52883e-05
14 *642:A3 *642:A2 6.47543e-05
15 *642:A3 *60:18 0.000222518
16 *642:A3 *69:32 6.33103e-05
17 *643:B *643:A 0.000119242
18 *643:B *658:A 3.13354e-05
19 *643:B *62:8 1.37763e-05
20 *643:B *139:21 0.0002239
21 *643:B *139:32 2.85623e-05
22 *648:A *628:A2 3.68999e-05
23 *648:A *629:A1 0.000122083
24 *648:A *629:A2 0.000125916
25 *648:A *629:B1 4.77769e-05
26 *648:A *644:A1 2.20014e-05
27 *648:A *648:B 4.89295e-05
28 *648:A *66:14 4.77719e-05
29 *648:A *128:31 6.13115e-05
30 *51:29 *631:A 0.000112279
31 *51:29 *641:B1 7.01359e-05
32 *51:29 *149:36 0.000274673
33 *51:29 *152:18 3.79822e-05
34 *51:29 *152:35 0.000141706
35 *51:29 *156:18 0
36 *51:29 *156:22 5.88561e-05
37 *51:29 *170:6 1.99427e-05
38 *51:29 *170:12 2.14005e-05
39 *51:58 *640:A1 0.000193707
40 *51:58 *640:A2 2.63324e-05
41 *51:58 *641:B1 4.82222e-06
*RES
1 *631:Y *51:4 1.6 
2 *51:4 *642:A3 8.8 
3 *51:4 *51:29 15.075 
4 *51:29 *638:A 15.355 
5 *51:29 *51:58 9.485 
6 *51:58 *648:A 8.845 
7 *51:58 *643:B 11.045 
*END

*D_NET *52 0.00261803
*CONN
*I *635:A2 I *D sky130_fd_sc_hd__o21ai_1
*I *649:A I *D sky130_fd_sc_hd__nor2_1
*I *636:C I *D sky130_fd_sc_hd__nor3_1
*I *632:X O *D sky130_fd_sc_hd__or2_1
*CAP
1 *635:A2 0
2 *649:A 7.65632e-05
3 *636:C 0.000186064
4 *632:X 0.000299443
5 *52:14 0.000503734
6 *52:12 0.000540551
7 *636:C *636:B 4.89549e-05
8 *636:C *637:B 0.000293975
9 *636:C *671:A1 6.69608e-06
10 *636:C *67:14 9.10613e-05
11 *649:A *67:14 1.08758e-05
12 *52:12 *638:B 0.000382566
13 *52:12 *131:18 3.62197e-05
14 *52:14 *637:B 5.9964e-06
15 *52:14 *638:B 0.000120412
16 *52:14 *670:B2 7.60898e-06
17 *52:14 *55:6 7.31203e-06
*RES
1 *632:X *52:12 10.025 
2 *52:12 *52:14 2.865 
3 *52:14 *636:C 10.265 
4 *52:14 *649:A 3.025 
5 *52:12 *635:A2 1.6 
*END

*D_NET *53 0.0004133
*CONN
*I *634:B1 I *D sky130_fd_sc_hd__o21ai_1
*I *633:X O *D sky130_fd_sc_hd__a22o_1
*CAP
1 *634:B1 6.95185e-05
2 *633:X 6.95185e-05
3 *634:B1 *627:A2 0.000112595
4 *634:B1 *627:B1 0.000161668
*RES
1 *633:X *634:B1 9.03 
*END

*D_NET *54 0.00306508
*CONN
*I *652:A1 I *D sky130_fd_sc_hd__o21ai_1
*I *635:B1 I *D sky130_fd_sc_hd__o21ai_1
*I *634:Y O *D sky130_fd_sc_hd__o21ai_1
*CAP
1 *652:A1 0.000225774
2 *635:B1 5.47642e-05
3 *634:Y 0.000731182
4 *54:6 0.00101172
5 *635:B1 *635:A1 4.27546e-05
6 *635:B1 *637:A 3.50152e-06
7 *635:B1 *638:B 1.19928e-05
8 *635:B1 *55:6 1.08758e-05
9 *652:A1 *654:A 8.71601e-05
10 *652:A1 *66:14 9.08622e-05
11 *54:6 *624:A 0.000160314
12 *54:6 *635:A1 7.50373e-05
13 *54:6 *638:B 0.000427233
14 *54:6 *139:8 8.41384e-05
15 *54:6 *169:33 4.77719e-05
*RES
1 *634:Y *54:6 14.47 
2 *54:6 *635:B1 2.665 
3 *54:6 *652:A1 9.515 
*END

*D_NET *55 0.00127799
*CONN
*I *637:A I *D sky130_fd_sc_hd__or2_1
*I *670:B2 I *D sky130_fd_sc_hd__a2bb2o_1
*I *635:Y O *D sky130_fd_sc_hd__o21ai_1
*CAP
1 *637:A 2.00682e-05
2 *670:B2 0.000377783
3 *635:Y 9.44536e-05
4 *55:6 0.000492305
5 *670:B2 *637:B 9.57985e-06
6 *670:B2 *649:B 0
7 *670:B2 *69:32 0.000196069
8 *670:B2 *83:14 4.77719e-05
9 *55:6 *638:B 1.06624e-05
10 *635:B1 *637:A 3.50152e-06
11 *635:B1 *55:6 1.08758e-05
12 *52:14 *670:B2 7.60898e-06
13 *52:14 *55:6 7.31203e-06
*RES
1 *635:Y *55:6 2.74 
2 *55:6 *670:B2 11.645 
3 *55:6 *637:A 1.96 
*END

*D_NET *56 0.00345411
*CONN
*I *637:B I *D sky130_fd_sc_hd__or2_1
*I *671:A1 I *D sky130_fd_sc_hd__a211o_1
*I *636:Y O *D sky130_fd_sc_hd__nor3_1
*CAP
1 *637:B 0.000350311
2 *671:A1 0.00106927
3 *636:Y 0
4 *56:4 0.00141958
5 *671:A1 *606:B 0.000106314
6 *671:A1 *636:A 0.000102855
7 *671:A1 *636:B 3.90873e-06
8 *671:A1 *671:A2 4.41973e-06
9 *671:A1 *671:B1 8.41265e-06
10 *671:A1 *682:B 7.27968e-05
11 *636:C *637:B 0.000293975
12 *636:C *671:A1 6.69608e-06
13 *670:B2 *637:B 9.57985e-06
14 *52:14 *637:B 5.9964e-06
*RES
1 *636:Y *56:4 1.6 
2 *56:4 *671:A1 24.225 
3 *56:4 *637:B 11.9075 
*END

*D_NET *57 0.00292448
*CONN
*I *638:B I *D sky130_fd_sc_hd__xnor2_1
*I *637:X O *D sky130_fd_sc_hd__or2_1
*CAP
1 *638:B 0.000745233
2 *637:X 0.000745233
3 *638:B *624:A 9.47017e-05
4 *638:B *634:A2 0.000233206
5 *638:B *635:A1 4.8962e-05
6 *638:B *149:36 8.41307e-05
7 *638:B *169:33 2.01504e-05
8 *635:B1 *638:B 1.19928e-05
9 *52:12 *638:B 0.000382566
10 *52:14 *638:B 0.000120412
11 *54:6 *638:B 0.000427233
12 *55:6 *638:B 1.06624e-05
*RES
1 *637:X *638:B 19.19 
*END

*D_NET *58 0.00485003
*CONN
*I *646:A I *D sky130_fd_sc_hd__xnor2_1
*I *656:A I *D sky130_fd_sc_hd__nor2_1
*I *648:B I *D sky130_fd_sc_hd__or2_1
*I *639:Y O *D sky130_fd_sc_hd__xnor2_2
*CAP
1 *646:A 0.000111108
2 *656:A 0.00010218
3 *648:B 0.000132591
4 *639:Y 0.000745183
5 *58:12 0.000971266
6 *58:6 0.00159279
7 *646:A *630:A 8.35118e-05
8 *646:A *162:12 0.00011099
9 *648:B *644:A2 0.000109904
10 *656:A *658:A 4.77719e-05
11 *58:12 *630:B 0.000622639
12 *58:12 *644:A2 4.1652e-06
13 *58:12 *658:A 0.000134255
14 *58:12 *63:14 3.27519e-05
15 *648:A *648:B 4.89295e-05
*RES
1 *639:Y *58:6 9.295 
2 *58:6 *58:12 14.33 
3 *58:12 *648:B 6.45 
4 *58:12 *656:A 5.085 
5 *58:6 *646:A 7.775 
*END

*D_NET *59 0.000325285
*CONN
*I *641:B1 I *D sky130_fd_sc_hd__o21ai_1
*I *640:X O *D sky130_fd_sc_hd__a22o_1
*CAP
1 *641:B1 9.49535e-05
2 *640:X 9.49535e-05
3 *641:B1 *640:B1 3.97053e-05
4 *641:B1 *149:36 2.07143e-05
5 *51:29 *641:B1 7.01359e-05
6 *51:58 *641:B1 4.82222e-06
*RES
1 *640:X *641:B1 9.03 
*END

*D_NET *60 0.0018796
*CONN
*I *642:B1 I *D sky130_fd_sc_hd__o31ai_1
*I *663:A1 I *D sky130_fd_sc_hd__o221a_1
*I *641:Y O *D sky130_fd_sc_hd__o21ai_1
*CAP
1 *642:B1 0
2 *663:A1 7.32535e-05
3 *641:Y 0.000637781
4 *60:18 0.000711034
5 *60:18 *640:B2 8.73389e-06
6 *60:18 *642:A1 8.52883e-05
7 *60:18 *69:32 7.01359e-05
8 *60:18 *170:12 7.08554e-05
9 *642:A3 *60:18 0.000222518
*RES
1 *641:Y *60:18 14.99 
2 *60:18 *663:A1 2.74 
3 *60:18 *642:B1 1.6 
*END

*D_NET *61 0.00169822
*CONN
*I *645:A I *D sky130_fd_sc_hd__or2_1
*I *678:A1 I *D sky130_fd_sc_hd__a31o_1
*I *642:Y O *D sky130_fd_sc_hd__o31ai_1
*CAP
1 *645:A 0
2 *678:A1 0.000303345
3 *642:Y 0.000391963
4 *61:16 0.000695309
5 *678:A1 *678:A3 4.55864e-06
6 *678:A1 *678:B1 1.77665e-05
7 *678:A1 *679:A1 5.96299e-05
8 *678:A1 *63:14 8.52883e-05
9 *61:16 *630:A 0.000126899
10 *61:16 *646:B 1.34618e-05
*RES
1 *642:Y *61:16 11.84 
2 *61:16 *678:A1 10.115 
3 *61:16 *645:A 1.6 
*END

*D_NET *62 0.00121419
*CONN
*I *658:A I *D sky130_fd_sc_hd__nand2_1
*I *644:C1 I *D sky130_fd_sc_hd__o211a_1
*I *643:Y O *D sky130_fd_sc_hd__nor2_1
*CAP
1 *658:A 0.000325012
2 *644:C1 0
3 *643:Y 5.95428e-05
4 *62:8 0.000384555
5 *658:A *644:A2 0.000110165
6 *658:A *644:B1 4.66108e-05
7 *658:A *63:14 4.89295e-05
8 *62:8 *644:A2 1.22325e-05
9 *643:B *658:A 3.13354e-05
10 *643:B *62:8 1.37763e-05
11 *656:A *658:A 4.77719e-05
12 *58:12 *658:A 0.000134255
*RES
1 *643:Y *62:8 2.665 
2 *62:8 *644:C1 1.6 
3 *62:8 *658:A 11.495 
*END

*D_NET *63 0.00257295
*CONN
*I *679:A1 I *D sky130_fd_sc_hd__a31o_1
*I *645:B I *D sky130_fd_sc_hd__or2_1
*I *644:X O *D sky130_fd_sc_hd__o211a_1
*CAP
1 *679:A1 0.000514089
2 *645:B 0
3 *644:X 0.000319765
4 *63:14 0.000833854
5 *679:A1 *678:B1 0.000234732
6 *679:A1 *679:A2 8.77405e-06
7 *679:A1 *679:A3 2.76492e-05
8 *679:A1 *679:B1 2.17623e-05
9 *63:14 *630:B 0.000385725
10 *658:A *63:14 4.89295e-05
11 *678:A1 *679:A1 5.96299e-05
12 *678:A1 *63:14 8.52883e-05
13 *58:12 *63:14 3.27519e-05
*RES
1 *644:X *63:14 12.305 
2 *63:14 *645:B 1.6 
3 *63:14 *679:A1 8.84875 
*END

*D_NET *64 0.000623309
*CONN
*I *646:B I *D sky130_fd_sc_hd__xnor2_1
*I *645:X O *D sky130_fd_sc_hd__or2_1
*CAP
1 *646:B 0.000217698
2 *645:X 0.000217698
3 *646:B *162:12 0.000174452
4 *61:16 *646:B 1.34618e-05
*RES
1 *645:X *646:B 11.325 
*END

*D_NET *65 0.0066799
*CONN
*I *656:B I *D sky130_fd_sc_hd__nor2_1
*I *654:A I *D sky130_fd_sc_hd__xnor2_1
*I *666:A I *D sky130_fd_sc_hd__or2_1
*I *647:Y O *D sky130_fd_sc_hd__xnor2_2
*CAP