* NGSPICE file created from kogge.ext - technology: sky130A

* Black-box entry subcircuit for sky130_ef_sc_hd__decap_12 abstract view
.subckt sky130_ef_sc_hd__decap_12 VPWR VGND VPB VNB
.ends

* Black-box entry subcircuit for sky130_fd_sc_hd__decap_4 abstract view
.subckt sky130_fd_sc_hd__decap_4 VGND VNB VPB VPWR
.ends

* Black-box entry subcircuit for sky130_fd_sc_hd__decap_8 abstract view
.subckt sky130_fd_sc_hd__decap_8 VGND VNB VPB VPWR
.ends

* Black-box entry subcircuit for sky130_fd_sc_hd__xor2_1 abstract view
.subckt sky130_fd_sc_hd__xor2_1 A B VGND VNB VPB VPWR X
.ends

* Black-box entry subcircuit for sky130_fd_sc_hd__a21o_1 abstract view
.subckt sky130_fd_sc_hd__a21o_1 A1 A2 B1 VGND VNB VPB VPWR X
.ends

* Black-box entry subcircuit for sky130_fd_sc_hd__decap_6 abstract view
.subckt sky130_fd_sc_hd__decap_6 VGND VNB VPB VPWR
.ends

* Black-box entry subcircuit for sky130_fd_sc_hd__a22o_1 abstract view
.subckt sky130_fd_sc_hd__a22o_1 A1 A2 B1 B2 VGND VNB VPB VPWR X
.ends

* Black-box entry subcircuit for sky130_fd_sc_hd__fill_1 abstract view
.subckt sky130_fd_sc_hd__fill_1 VGND VNB VPB VPWR
.ends

* Black-box entry subcircuit for sky130_fd_sc_hd__decap_3 abstract view
.subckt sky130_fd_sc_hd__decap_3 VGND VNB VPB VPWR
.ends

* Black-box entry subcircuit for sky130_fd_sc_hd__buf_2 abstract view
.subckt sky130_fd_sc_hd__buf_2 A VGND VNB VPB VPWR X
.ends

* Black-box entry subcircuit for sky130_fd_sc_hd__nor2_1 abstract view
.subckt sky130_fd_sc_hd__nor2_1 A B VGND VNB VPB VPWR Y
.ends

* Black-box entry subcircuit for sky130_fd_sc_hd__or2_1 abstract view
.subckt sky130_fd_sc_hd__or2_1 A B VGND VNB VPB VPWR X
.ends

* Black-box entry subcircuit for sky130_fd_sc_hd__fill_2 abstract view
.subckt sky130_fd_sc_hd__fill_2 VGND VNB VPB VPWR
.ends

* Black-box entry subcircuit for sky130_fd_sc_hd__clkbuf_4 abstract view
.subckt sky130_fd_sc_hd__clkbuf_4 A VGND VNB VPB VPWR X
.ends

* Black-box entry subcircuit for sky130_fd_sc_hd__xnor2_1 abstract view
.subckt sky130_fd_sc_hd__xnor2_1 A B VGND VNB VPB VPWR Y
.ends

* Black-box entry subcircuit for sky130_fd_sc_hd__and3_1 abstract view
.subckt sky130_fd_sc_hd__and3_1 A B C VGND VNB VPB VPWR X
.ends

* Black-box entry subcircuit for sky130_fd_sc_hd__xor2_2 abstract view
.subckt sky130_fd_sc_hd__xor2_2 A B VGND VNB VPB VPWR X
.ends

* Black-box entry subcircuit for sky130_fd_sc_hd__a211o_1 abstract view
.subckt sky130_fd_sc_hd__a211o_1 A1 A2 B1 C1 VGND VNB VPB VPWR X
.ends

* Black-box entry subcircuit for sky130_fd_sc_hd__a2bb2o_1 abstract view
.subckt sky130_fd_sc_hd__a2bb2o_1 A1_N A2_N B1 B2 VGND VNB VPB VPWR X
.ends

* Black-box entry subcircuit for sky130_fd_sc_hd__and2_1 abstract view
.subckt sky130_fd_sc_hd__and2_1 A B VGND VNB VPB VPWR X
.ends

* Black-box entry subcircuit for sky130_fd_sc_hd__o21a_1 abstract view
.subckt sky130_fd_sc_hd__o21a_1 A1 A2 B1 VGND VNB VPB VPWR X
.ends

* Black-box entry subcircuit for sky130_fd_sc_hd__o21ai_1 abstract view
.subckt sky130_fd_sc_hd__o21ai_1 A1 A2 B1 VGND VNB VPB VPWR Y
.ends

* Black-box entry subcircuit for sky130_fd_sc_hd__xnor2_2 abstract view
.subckt sky130_fd_sc_hd__xnor2_2 A B VGND VNB VPB VPWR Y
.ends

* Black-box entry subcircuit for sky130_fd_sc_hd__a31o_1 abstract view
.subckt sky130_fd_sc_hd__a31o_1 A1 A2 A3 B1 VGND VNB VPB VPWR X
.ends

* Black-box entry subcircuit for sky130_fd_sc_hd__tapvpwrvgnd_1 abstract view
.subckt sky130_fd_sc_hd__tapvpwrvgnd_1 VGND VPWR
.ends

* Black-box entry subcircuit for sky130_fd_sc_hd__buf_1 abstract view
.subckt sky130_fd_sc_hd__buf_1 A VGND VNB VPB VPWR X
.ends

* Black-box entry subcircuit for sky130_fd_sc_hd__and4_1 abstract view
.subckt sky130_fd_sc_hd__and4_1 A B C D VGND VNB VPB VPWR X
.ends

* Black-box entry subcircuit for sky130_fd_sc_hd__clkbuf_2 abstract view
.subckt sky130_fd_sc_hd__clkbuf_2 A VGND VNB VPB VPWR X
.ends

* Black-box entry subcircuit for sky130_fd_sc_hd__a21oi_1 abstract view
.subckt sky130_fd_sc_hd__a21oi_1 A1 A2 B1 VGND VNB VPB VPWR Y
.ends

* Black-box entry subcircuit for sky130_fd_sc_hd__a21bo_1 abstract view
.subckt sky130_fd_sc_hd__a21bo_1 A1 A2 B1_N VGND VNB VPB VPWR X
.ends

* Black-box entry subcircuit for sky130_fd_sc_hd__o21ba_1 abstract view
.subckt sky130_fd_sc_hd__o21ba_1 A1 A2 B1_N VGND VNB VPB VPWR X
.ends

* Black-box entry subcircuit for sky130_fd_sc_hd__a221oi_2 abstract view
.subckt sky130_fd_sc_hd__a221oi_2 A1 A2 B1 B2 C1 VGND VNB VPB VPWR Y
.ends

* Black-box entry subcircuit for sky130_fd_sc_hd__a221o_1 abstract view
.subckt sky130_fd_sc_hd__a221o_1 A1 A2 B1 B2 C1 VGND VNB VPB VPWR X
.ends

* Black-box entry subcircuit for sky130_fd_sc_hd__o211a_1 abstract view
.subckt sky130_fd_sc_hd__o211a_1 A1 A2 B1 C1 VGND VNB VPB VPWR X
.ends

* Black-box entry subcircuit for sky130_fd_sc_hd__and2b_1 abstract view
.subckt sky130_fd_sc_hd__and2b_1 A_N B VGND VNB VPB VPWR X
.ends

* Black-box entry subcircuit for sky130_fd_sc_hd__o31a_1 abstract view
.subckt sky130_fd_sc_hd__o31a_1 A1 A2 A3 B1 VGND VNB VPB VPWR X
.ends

* Black-box entry subcircuit for sky130_fd_sc_hd__clkbuf_1 abstract view
.subckt sky130_fd_sc_hd__clkbuf_1 A VGND VNB VPB VPWR X
.ends

* Black-box entry subcircuit for sky130_fd_sc_hd__dlymetal6s2s_1 abstract view
.subckt sky130_fd_sc_hd__dlymetal6s2s_1 A VGND VNB VPB VPWR X
.ends

* Black-box entry subcircuit for sky130_fd_sc_hd__o221a_1 abstract view
.subckt sky130_fd_sc_hd__o221a_1 A1 A2 B1 B2 C1 VGND VNB VPB VPWR X
.ends

* Black-box entry subcircuit for sky130_fd_sc_hd__nand2_1 abstract view
.subckt sky130_fd_sc_hd__nand2_1 A B VGND VNB VPB VPWR Y
.ends

* Black-box entry subcircuit for sky130_fd_sc_hd__o31ai_1 abstract view
.subckt sky130_fd_sc_hd__o31ai_1 A1 A2 A3 B1 VGND VNB VPB VPWR Y
.ends

* Black-box entry subcircuit for sky130_fd_sc_hd__inv_2 abstract view
.subckt sky130_fd_sc_hd__inv_2 A VGND VNB VPB VPWR Y
.ends

* Black-box entry subcircuit for sky130_fd_sc_hd__o31ai_2 abstract view
.subckt sky130_fd_sc_hd__o31ai_2 A1 A2 A3 B1 VGND VNB VPB VPWR Y
.ends

* Black-box entry subcircuit for sky130_fd_sc_hd__nor3_1 abstract view
.subckt sky130_fd_sc_hd__nor3_1 A B C VGND VNB VPB VPWR Y
.ends

* Black-box entry subcircuit for sky130_fd_sc_hd__or3_2 abstract view
.subckt sky130_fd_sc_hd__or3_2 A B C VGND VNB VPB VPWR X
.ends

.subckt kogge A[0] A[10] A[11] A[12] A[13] A[14] A[15] A[1] A[2] A[3] A[4] A[5] A[6]
+ A[7] A[8] A[9] B[0] B[10] B[11] B[12] B[13] B[14] B[15] B[1] B[2] B[3] B[4] B[5]
+ B[6] B[7] B[8] B[9] SUM[0] SUM[10] SUM[11] SUM[12] SUM[13] SUM[14] SUM[15] SUM[1]
+ SUM[2] SUM[3] SUM[4] SUM[5] SUM[6] SUM[7] SUM[8] SUM[9] VGND VPWR
XFILLER_0_7_81 VPWR VGND VPWR VGND sky130_ef_sc_hd__decap_12
XFILLER_0_3_39 VGND VGND VPWR VPWR sky130_fd_sc_hd__decap_4
XFILLER_0_2_108 VGND VGND VPWR VPWR sky130_fd_sc_hd__decap_8
X_131_ _073_ _081_ VGND VGND VPWR VPWR net45 sky130_fd_sc_hd__xor2_1
X_200_ _019_ _045_ _047_ VGND VGND VPWR VPWR _048_ sky130_fd_sc_hd__a21o_1
XFILLER_0_10_41 VGND VGND VPWR VPWR sky130_fd_sc_hd__decap_6
X_114_ _055_ _064_ _065_ _066_ VGND VGND VPWR VPWR _067_ sky130_fd_sc_hd__a22o_1
XFILLER_0_21_62 VGND VGND VPWR VPWR sky130_fd_sc_hd__decap_8
XFILLER_0_1_61 VGND VGND VPWR VPWR sky130_fd_sc_hd__fill_1
XFILLER_0_13_109 VGND VGND VPWR VPWR sky130_fd_sc_hd__decap_3
Xoutput42 net42 VGND VGND VPWR VPWR SUM[3] sky130_fd_sc_hd__buf_2
XFILLER_0_7_71 VGND VGND VPWR VPWR sky130_fd_sc_hd__decap_3
XFILLER_0_7_93 VPWR VGND VPWR VGND sky130_ef_sc_hd__decap_12
X_130_ _077_ _080_ VGND VGND VPWR VPWR _081_ sky130_fd_sc_hd__nor2_1
XFILLER_0_4_83 VGND VGND VPWR VPWR sky130_fd_sc_hd__fill_1
XFILLER_0_9_28 VPWR VGND VPWR VGND sky130_ef_sc_hd__decap_12
XFILLER_0_19_126 VGND VGND VPWR VPWR sky130_fd_sc_hd__fill_1
XFILLER_0_10_64 VGND VGND VPWR VPWR sky130_fd_sc_hd__decap_8
X_113_ net26 net10 VGND VGND VPWR VPWR _066_ sky130_fd_sc_hd__or2_1
XFILLER_0_21_85 VGND VGND VPWR VPWR sky130_fd_sc_hd__fill_2
XFILLER_0_1_51 VGND VGND VPWR VPWR sky130_fd_sc_hd__decap_4
XFILLER_0_12_110 VPWR VGND VPWR VGND sky130_ef_sc_hd__decap_12
Xoutput43 net43 VGND VGND VPWR VPWR SUM[4] sky130_fd_sc_hd__clkbuf_4
XFILLER_0_13_20 VGND VGND VPWR VPWR sky130_fd_sc_hd__decap_8
XFILLER_0_13_42 VGND VGND VPWR VPWR sky130_fd_sc_hd__decap_4
XFILLER_0_19_105 VGND VGND VPWR VPWR sky130_fd_sc_hd__decap_6
XFILLER_0_19_52 VGND VGND VPWR VPWR sky130_fd_sc_hd__decap_4
X_189_ _021_ _030_ VGND VGND VPWR VPWR _038_ sky130_fd_sc_hd__nor2_1
XFILLER_0_10_54 VGND VGND VPWR VPWR sky130_fd_sc_hd__decap_4
X_112_ net25 net9 net26 net10 VGND VGND VPWR VPWR _065_ sky130_fd_sc_hd__a22o_1
XFILLER_0_21_111 VGND VGND VPWR VPWR sky130_fd_sc_hd__fill_1
XFILLER_0_16_42 VPWR VGND VPWR VGND sky130_ef_sc_hd__decap_12
XFILLER_0_12_122 VGND VGND VPWR VPWR sky130_fd_sc_hd__decap_4
Xoutput44 net44 VGND VGND VPWR VPWR SUM[5] sky130_fd_sc_hd__clkbuf_4
Xoutput33 net33 VGND VGND VPWR VPWR SUM[0] sky130_fd_sc_hd__clkbuf_4
XFILLER_0_9_3 VGND VGND VPWR VPWR sky130_fd_sc_hd__fill_2
XFILLER_0_4_130 VGND VGND VPWR VPWR sky130_fd_sc_hd__fill_1
XFILLER_0_13_65 VPWR VGND VPWR VGND sky130_ef_sc_hd__decap_12
XFILLER_0_0_7 VGND VGND VPWR VPWR sky130_fd_sc_hd__decap_6
XFILLER_0_4_41 VPWR VGND VPWR VGND sky130_ef_sc_hd__decap_12
XFILLER_0_4_85 VPWR VGND VPWR VGND sky130_ef_sc_hd__decap_12
X_188_ net22 net6 VGND VGND VPWR VPWR _037_ sky130_fd_sc_hd__xnor2_1
XFILLER_0_9_19 VGND VGND VPWR VPWR sky130_fd_sc_hd__fill_2
X_111_ _056_ _057_ _062_ VGND VGND VPWR VPWR _064_ sky130_fd_sc_hd__and3_1
XFILLER_0_16_54 VPWR VGND VPWR VGND sky130_ef_sc_hd__decap_12
Xoutput34 net34 VGND VGND VPWR VPWR SUM[10] sky130_fd_sc_hd__clkbuf_4
Xoutput45 net45 VGND VGND VPWR VPWR SUM[6] sky130_fd_sc_hd__clkbuf_4
XFILLER_0_13_11 VGND VGND VPWR VPWR sky130_fd_sc_hd__fill_2
XFILLER_0_1_123 VGND VGND VPWR VPWR sky130_fd_sc_hd__fill_1
XFILLER_0_1_101 VGND VGND VPWR VPWR sky130_fd_sc_hd__decap_8
XFILLER_0_13_77 VPWR VGND VPWR VGND sky130_ef_sc_hd__decap_12
XFILLER_0_4_53 VPWR VGND VPWR VGND sky130_ef_sc_hd__decap_12
XFILLER_0_4_97 VPWR VGND VPWR VGND sky130_ef_sc_hd__decap_12
X_187_ _030_ _036_ VGND VGND VPWR VPWR net37 sky130_fd_sc_hd__xnor2_1
X_110_ net27 net11 VGND VGND VPWR VPWR _063_ sky130_fd_sc_hd__xor2_2
XFILLER_0_21_99 VGND VGND VPWR VPWR sky130_fd_sc_hd__fill_2
XFILLER_0_21_55 VGND VGND VPWR VPWR sky130_fd_sc_hd__fill_1
XFILLER_0_21_113 VGND VGND VPWR VPWR sky130_fd_sc_hd__fill_2
XFILLER_0_16_66 VPWR VGND VPWR VGND sky130_ef_sc_hd__decap_12
XFILLER_0_8_129 VGND VGND VPWR VPWR sky130_fd_sc_hd__fill_2
Xoutput46 net46 VGND VGND VPWR VPWR SUM[7] sky130_fd_sc_hd__clkbuf_4
Xoutput35 net35 VGND VGND VPWR VPWR SUM[11] sky130_fd_sc_hd__buf_2
XFILLER_0_7_53 VGND VGND VPWR VPWR sky130_fd_sc_hd__decap_3
XFILLER_0_1_113 VGND VGND VPWR VPWR sky130_fd_sc_hd__decap_6
XFILLER_0_13_89 VPWR VGND VPWR VGND sky130_ef_sc_hd__decap_12
XFILLER_0_4_65 VPWR VGND VPWR VGND sky130_ef_sc_hd__decap_12
X_186_ _005_ _032_ _034_ _035_ VGND VGND VPWR VPWR _036_ sky130_fd_sc_hd__a211o_1
XFILLER_0_18_130 VGND VGND VPWR VPWR sky130_fd_sc_hd__fill_1
XFILLER_0_21_23 VGND VGND VPWR VPWR sky130_fd_sc_hd__decap_4
XFILLER_0_1_55 VGND VGND VPWR VPWR sky130_fd_sc_hd__fill_1
X_169_ _014_ _020_ VGND VGND VPWR VPWR net35 sky130_fd_sc_hd__xnor2_1
XFILLER_0_15_111 VGND VGND VPWR VPWR sky130_fd_sc_hd__fill_1
XFILLER_0_18_3 VGND VGND VPWR VPWR sky130_fd_sc_hd__decap_6
Xoutput47 net47 VGND VGND VPWR VPWR SUM[8] sky130_fd_sc_hd__clkbuf_4
Xoutput36 net36 VGND VGND VPWR VPWR SUM[12] sky130_fd_sc_hd__clkbuf_4
XPHY_0 VGND VGND VPWR VPWR sky130_fd_sc_hd__decap_3
XFILLER_0_4_122 VGND VGND VPWR VPWR sky130_fd_sc_hd__decap_8
XFILLER_0_7_21 VPWR VGND VPWR VGND sky130_ef_sc_hd__decap_12
XFILLER_0_4_33 VGND VGND VPWR VPWR sky130_fd_sc_hd__fill_1
XFILLER_0_4_77 VGND VGND VPWR VPWR sky130_fd_sc_hd__decap_6
X_185_ _018_ _031_ _032_ _004_ VGND VGND VPWR VPWR _035_ sky130_fd_sc_hd__a2bb2o_1
XFILLER_0_21_79 VGND VGND VPWR VPWR sky130_fd_sc_hd__decap_4
XFILLER_0_21_57 VGND VGND VPWR VPWR sky130_fd_sc_hd__fill_2
X_099_ net24 net8 VGND VGND VPWR VPWR _054_ sky130_fd_sc_hd__and2_1
X_168_ _086_ _016_ _019_ VGND VGND VPWR VPWR _020_ sky130_fd_sc_hd__a21o_1
XFILLER_0_1_89 VGND VGND VPWR VPWR sky130_fd_sc_hd__decap_4
XFILLER_0_8_109 VPWR VGND VPWR VGND sky130_ef_sc_hd__decap_12
XFILLER_0_12_126 VGND VGND VPWR VPWR sky130_fd_sc_hd__fill_1
Xoutput37 net37 VGND VGND VPWR VPWR SUM[13] sky130_fd_sc_hd__clkbuf_4
Xoutput48 net48 VGND VGND VPWR VPWR SUM[9] sky130_fd_sc_hd__buf_2
XPHY_1 VGND VGND VPWR VPWR sky130_fd_sc_hd__decap_3
XFILLER_0_7_33 VPWR VGND VPWR VGND sky130_ef_sc_hd__decap_12
XFILLER_0_13_36 VGND VGND VPWR VPWR sky130_fd_sc_hd__fill_1
XFILLER_0_19_57 VPWR VGND VPWR VGND sky130_ef_sc_hd__decap_12
X_184_ net20 net4 _033_ VGND VGND VPWR VPWR _034_ sky130_fd_sc_hd__o21a_1
XFILLER_0_10_26 VGND VGND VPWR VPWR sky130_fd_sc_hd__fill_2
XFILLER_0_21_14 VGND VGND VPWR VPWR sky130_fd_sc_hd__decap_3
X_098_ _052_ _053_ VGND VGND VPWR VPWR net40 sky130_fd_sc_hd__xor2_1
X_167_ _003_ _015_ _018_ VGND VGND VPWR VPWR _019_ sky130_fd_sc_hd__o21ai_1
XFILLER_0_1_57 VGND VGND VPWR VPWR sky130_fd_sc_hd__decap_4
XFILLER_0_21_105 VGND VGND VPWR VPWR sky130_fd_sc_hd__decap_6
XFILLER_0_12_105 VGND VGND VPWR VPWR sky130_fd_sc_hd__fill_1
Xoutput38 net38 VGND VGND VPWR VPWR SUM[14] sky130_fd_sc_hd__clkbuf_4
XPHY_2 VGND VGND VPWR VPWR sky130_fd_sc_hd__decap_3
XFILLER_0_7_45 VGND VGND VPWR VPWR sky130_fd_sc_hd__decap_8
XFILLER_0_19_69 VPWR VGND VPWR VGND sky130_ef_sc_hd__decap_12
X_183_ net19 net3 net20 net4 VGND VGND VPWR VPWR _033_ sky130_fd_sc_hd__a22o_1
XFILLER_0_21_37 VGND VGND VPWR VPWR sky130_fd_sc_hd__decap_8
X_166_ net18 net2 _017_ VGND VGND VPWR VPWR _018_ sky130_fd_sc_hd__o21ai_1
XFILLER_0_15_125 VGND VGND VPWR VPWR sky130_fd_sc_hd__fill_2
XFILLER_0_1_69 VPWR VGND VPWR VGND sky130_ef_sc_hd__decap_12
XFILLER_0_1_25 VGND VGND VPWR VPWR sky130_fd_sc_hd__fill_1
X_097_ net24 net8 VGND VGND VPWR VPWR _053_ sky130_fd_sc_hd__xor2_2
XFILLER_0_16_26 VGND VGND VPWR VPWR sky130_fd_sc_hd__fill_2
X_149_ net31 net15 _002_ VGND VGND VPWR VPWR _003_ sky130_fd_sc_hd__o21ai_1
Xoutput39 net39 VGND VGND VPWR VPWR SUM[15] sky130_fd_sc_hd__clkbuf_4
XFILLER_0_7_111 VGND VGND VPWR VPWR sky130_fd_sc_hd__fill_1
XFILLER_0_16_3 VPWR VGND VPWR VGND sky130_ef_sc_hd__decap_12
XPHY_3 VGND VGND VPWR VPWR sky130_fd_sc_hd__decap_3
XFILLER_0_7_57 VGND VGND VPWR VPWR sky130_fd_sc_hd__decap_4
XFILLER_0_19_15 VPWR VGND VPWR VGND sky130_ef_sc_hd__decap_12
X_182_ _015_ _031_ VGND VGND VPWR VPWR _032_ sky130_fd_sc_hd__nor2_1
XFILLER_0_21_27 VGND VGND VPWR VPWR sky130_fd_sc_hd__fill_1
X_165_ net32 net16 net18 net2 VGND VGND VPWR VPWR _017_ sky130_fd_sc_hd__a22o_1
X_096_ _051_ _052_ VGND VGND VPWR VPWR net33 sky130_fd_sc_hd__nor2_1
XFILLER_0_21_129 VGND VGND VPWR VPWR sky130_fd_sc_hd__fill_2
X_148_ net30 net14 net31 net15 VGND VGND VPWR VPWR _002_ sky130_fd_sc_hd__a22o_1
XPHY_4 VGND VGND VPWR VPWR sky130_fd_sc_hd__decap_3
XFILLER_0_17_81 VPWR VGND VPWR VGND sky130_ef_sc_hd__decap_12
XFILLER_0_13_28 VGND VGND VPWR VPWR sky130_fd_sc_hd__fill_1
XFILLER_0_19_27 VGND VGND VPWR VPWR sky130_fd_sc_hd__decap_4
XFILLER_0_10_18 VGND VGND VPWR VPWR sky130_fd_sc_hd__decap_8
XFILLER_0_10_29 VPWR VGND VPWR VGND sky130_ef_sc_hd__decap_12
X_181_ _014_ _021_ VGND VGND VPWR VPWR _031_ sky130_fd_sc_hd__or2_1
XFILLER_0_18_102 VPWR VGND VPWR VGND sky130_ef_sc_hd__decap_12
XFILLER_0_5_80 VGND VGND VPWR VPWR sky130_fd_sc_hd__fill_1
X_095_ net17 net1 VGND VGND VPWR VPWR _052_ sky130_fd_sc_hd__and2_1
X_164_ _001_ _015_ VGND VGND VPWR VPWR _016_ sky130_fd_sc_hd__nor2_1
XFILLER_0_7_113 VPWR VGND VPWR VGND sky130_ef_sc_hd__decap_12
X_147_ _087_ _088_ VGND VGND VPWR VPWR _001_ sky130_fd_sc_hd__or2_1
XPHY_5 VGND VGND VPWR VPWR sky130_fd_sc_hd__decap_3
XFILLER_0_17_93 VPWR VGND VPWR VGND sky130_ef_sc_hd__decap_12
XFILLER_0_1_119 VGND VGND VPWR VPWR sky130_fd_sc_hd__fill_1
XFILLER_0_4_27 VGND VGND VPWR VPWR sky130_fd_sc_hd__fill_1
XFILLER_0_14_83 VGND VGND VPWR VPWR sky130_fd_sc_hd__fill_1
X_180_ net21 net5 VGND VGND VPWR VPWR _030_ sky130_fd_sc_hd__xnor2_2
XFILLER_0_18_114 VPWR VGND VPWR VGND sky130_ef_sc_hd__decap_12
XFILLER_0_21_29 VGND VGND VPWR VPWR sky130_fd_sc_hd__fill_2
X_094_ net17 net1 VGND VGND VPWR VPWR _051_ sky130_fd_sc_hd__nor2_1
X_163_ _000_ _007_ VGND VGND VPWR VPWR _015_ sky130_fd_sc_hd__or2_1
XFILLER_0_15_117 VGND VGND VPWR VPWR sky130_fd_sc_hd__fill_1
XFILLER_0_1_39 VPWR VGND VPWR VGND sky130_ef_sc_hd__decap_12
XFILLER_0_11_51 VGND VGND VPWR VPWR sky130_fd_sc_hd__decap_4
XFILLER_0_16_29 VGND VGND VPWR VPWR sky130_fd_sc_hd__decap_3
XFILLER_0_16_18 VGND VGND VPWR VPWR sky130_fd_sc_hd__decap_8
X_146_ net32 net16 VGND VGND VPWR VPWR _000_ sky130_fd_sc_hd__xnor2_2
XFILLER_0_7_125 VGND VGND VPWR VPWR sky130_fd_sc_hd__fill_2
XPHY_6 VGND VGND VPWR VPWR sky130_fd_sc_hd__decap_3
X_129_ _055_ _064_ _078_ _079_ VGND VGND VPWR VPWR _080_ sky130_fd_sc_hd__a31o_1
XFILLER_0_1_109 VGND VGND VPWR VPWR sky130_fd_sc_hd__decap_3
XFILLER_0_7_9 VPWR VGND VPWR VGND sky130_ef_sc_hd__decap_12
XFILLER_0_5_6 VPWR VGND VPWR VGND sky130_ef_sc_hd__decap_12
XFILLER_0_14_3 VGND VGND VPWR VPWR sky130_fd_sc_hd__decap_4
XFILLER_0_3_3 VPWR VGND VPWR VGND sky130_ef_sc_hd__decap_12
XFILLER_0_18_126 VGND VGND VPWR VPWR sky130_fd_sc_hd__decap_4
X_162_ net19 net3 VGND VGND VPWR VPWR _014_ sky130_fd_sc_hd__xnor2_2
XFILLER_0_11_63 VGND VGND VPWR VPWR sky130_fd_sc_hd__fill_1
XFILLER_0_15_107 VGND VGND VPWR VPWR sky130_fd_sc_hd__decap_4
XTAP_90 VGND VPWR sky130_fd_sc_hd__tapvpwrvgnd_1
Xinput1 A[0] VGND VGND VPWR VPWR net1 sky130_fd_sc_hd__buf_1
X_145_ _088_ _093_ VGND VGND VPWR VPWR net47 sky130_fd_sc_hd__xor2_1
XPHY_7 VGND VGND VPWR VPWR sky130_fd_sc_hd__decap_3
XFILLER_0_17_51 VGND VGND VPWR VPWR sky130_fd_sc_hd__decap_4
XFILLER_0_17_40 VGND VGND VPWR VPWR sky130_fd_sc_hd__decap_8
X_128_ _066_ _063_ _065_ _068_ VGND VGND VPWR VPWR _079_ sky130_fd_sc_hd__and4_1
XFILLER_0_4_18 VGND VGND VPWR VPWR sky130_fd_sc_hd__decap_4
XFILLER_0_4_29 VGND VGND VPWR VPWR sky130_fd_sc_hd__decap_4
XFILLER_0_14_41 VPWR VGND VPWR VGND sky130_ef_sc_hd__decap_12
X_161_ _007_ _013_ VGND VGND VPWR VPWR net34 sky130_fd_sc_hd__xnor2_1
XFILLER_0_1_19 VGND VGND VPWR VPWR sky130_fd_sc_hd__decap_6
XTAP_91 VGND VPWR sky130_fd_sc_hd__tapvpwrvgnd_1
XTAP_80 VGND VPWR sky130_fd_sc_hd__tapvpwrvgnd_1
Xinput2 A[10] VGND VGND VPWR VPWR net2 sky130_fd_sc_hd__clkbuf_2
XFILLER_0_14_130 VGND VGND VPWR VPWR sky130_fd_sc_hd__fill_1
XFILLER_0_20_122 VGND VGND VPWR VPWR sky130_fd_sc_hd__fill_1
X_144_ _080_ _089_ _092_ VGND VGND VPWR VPWR _093_ sky130_fd_sc_hd__a21oi_1
XFILLER_0_7_105 VGND VGND VPWR VPWR sky130_fd_sc_hd__decap_6
XPHY_8 VGND VGND VPWR VPWR sky130_fd_sc_hd__decap_3
X_127_ _063_ _068_ VGND VGND VPWR VPWR _078_ sky130_fd_sc_hd__and2_1
XFILLER_0_0_111 VGND VGND VPWR VPWR sky130_fd_sc_hd__fill_1
XFILLER_0_8_83 VGND VGND VPWR VPWR sky130_fd_sc_hd__fill_1
XFILLER_0_14_20 VGND VGND VPWR VPWR sky130_fd_sc_hd__decap_8
XFILLER_0_14_53 VPWR VGND VPWR VGND sky130_ef_sc_hd__decap_12
XFILLER_0_14_97 VPWR VGND VPWR VGND sky130_ef_sc_hd__decap_12
XFILLER_0_5_51 VGND VGND VPWR VPWR sky130_fd_sc_hd__decap_4
X_160_ _010_ _012_ VGND VGND VPWR VPWR _013_ sky130_fd_sc_hd__or2_1
XTAP_81 VGND VPWR sky130_fd_sc_hd__tapvpwrvgnd_1
Xinput3 A[11] VGND VGND VPWR VPWR net3 sky130_fd_sc_hd__clkbuf_2
XTAP_70 VGND VPWR sky130_fd_sc_hd__tapvpwrvgnd_1
X_143_ _077_ _089_ _091_ VGND VGND VPWR VPWR _092_ sky130_fd_sc_hd__a21bo_1
XFILLER_0_11_123 VGND VGND VPWR VPWR sky130_fd_sc_hd__decap_8
XFILLER_0_2_85 VGND VGND VPWR VPWR sky130_fd_sc_hd__decap_4
XFILLER_0_17_20 VPWR VGND VPWR VGND sky130_ef_sc_hd__decap_12
X_126_ _074_ _075_ _076_ VGND VGND VPWR VPWR _077_ sky130_fd_sc_hd__o21ba_1
XFILLER_0_4_109 VGND VGND VPWR VPWR sky130_fd_sc_hd__decap_6
XPHY_9 VGND VGND VPWR VPWR sky130_fd_sc_hd__decap_3
X_109_ _061_ _062_ VGND VGND VPWR VPWR net42 sky130_fd_sc_hd__xnor2_1
XFILLER_0_14_65 VPWR VGND VPWR VGND sky130_ef_sc_hd__decap_12
XFILLER_0_5_74 VGND VGND VPWR VPWR sky130_fd_sc_hd__decap_6
Xinput4 A[12] VGND VGND VPWR VPWR net4 sky130_fd_sc_hd__clkbuf_2
XTAP_82 VGND VPWR sky130_fd_sc_hd__tapvpwrvgnd_1
XTAP_60 VGND VPWR sky130_fd_sc_hd__tapvpwrvgnd_1
XFILLER_0_11_55 VGND VGND VPWR VPWR sky130_fd_sc_hd__fill_1
XFILLER_0_11_77 VPWR VGND VPWR VGND sky130_ef_sc_hd__decap_12
XTAP_71 VGND VPWR sky130_fd_sc_hd__tapvpwrvgnd_1
X_142_ net30 net14 _090_ VGND VGND VPWR VPWR _091_ sky130_fd_sc_hd__o21ai_1
XFILLER_0_11_113 VGND VGND VPWR VPWR sky130_fd_sc_hd__decap_3
X_125_ net28 net12 VGND VGND VPWR VPWR _076_ sky130_fd_sc_hd__nor2_1
XFILLER_0_17_32 VGND VGND VPWR VPWR sky130_fd_sc_hd__decap_4
XFILLER_0_0_113 VGND VGND VPWR VPWR sky130_fd_sc_hd__fill_2
X_108_ net26 net10 VGND VGND VPWR VPWR _062_ sky130_fd_sc_hd__xor2_2
XFILLER_0_8_85 VPWR VGND VPWR VGND sky130_ef_sc_hd__decap_12
XFILLER_0_14_77 VGND VGND VPWR VPWR sky130_fd_sc_hd__fill_1
Xinput5 A[13] VGND VGND VPWR VPWR net5 sky130_fd_sc_hd__clkbuf_2
XFILLER_0_11_67 VGND VGND VPWR VPWR sky130_fd_sc_hd__fill_1
XFILLER_0_11_89 VGND VGND VPWR VPWR sky130_fd_sc_hd__decap_6
XTAP_83 VGND VPWR sky130_fd_sc_hd__tapvpwrvgnd_1
XTAP_50 VGND VPWR sky130_fd_sc_hd__tapvpwrvgnd_1
XTAP_61 VGND VPWR sky130_fd_sc_hd__tapvpwrvgnd_1
XTAP_72 VGND VPWR sky130_fd_sc_hd__tapvpwrvgnd_1
X_141_ net29 net13 net30 net14 VGND VGND VPWR VPWR _090_ sky130_fd_sc_hd__a22o_1
XFILLER_0_2_54 VPWR VGND VPWR VGND sky130_ef_sc_hd__decap_12
XFILLER_0_6_130 VGND VGND VPWR VPWR sky130_fd_sc_hd__fill_1
X_124_ net28 net12 VGND VGND VPWR VPWR _075_ sky130_fd_sc_hd__and2_1
Xinput30 B[7] VGND VGND VPWR VPWR net30 sky130_fd_sc_hd__clkbuf_2
XFILLER_0_17_55 VGND VGND VPWR VPWR sky130_fd_sc_hd__fill_1
X_107_ _059_ _060_ VGND VGND VPWR VPWR _061_ sky130_fd_sc_hd__or2_1
XFILLER_0_8_42 VGND VGND VPWR VPWR sky130_fd_sc_hd__decap_6
XFILLER_0_8_97 VPWR VGND VPWR VGND sky130_ef_sc_hd__decap_12
XFILLER_0_11_57 VGND VGND VPWR VPWR sky130_fd_sc_hd__decap_6
Xinput6 A[14] VGND VGND VPWR VPWR net6 sky130_fd_sc_hd__buf_1
XTAP_84 VGND VPWR sky130_fd_sc_hd__tapvpwrvgnd_1
XTAP_51 VGND VPWR sky130_fd_sc_hd__tapvpwrvgnd_1
XTAP_62 VGND VPWR sky130_fd_sc_hd__tapvpwrvgnd_1
XTAP_73 VGND VPWR sky130_fd_sc_hd__tapvpwrvgnd_1
XFILLER_0_20_104 VPWR VGND VPWR VGND sky130_ef_sc_hd__decap_12
X_140_ _073_ _087_ VGND VGND VPWR VPWR _089_ sky130_fd_sc_hd__nor2_1
XFILLER_0_2_66 VPWR VGND VPWR VGND sky130_ef_sc_hd__decap_12
XFILLER_0_2_11 VPWR VGND VPWR VGND sky130_ef_sc_hd__decap_12
Xinput20 B[12] VGND VGND VPWR VPWR net20 sky130_fd_sc_hd__clkbuf_2
X_123_ net27 net11 VGND VGND VPWR VPWR _074_ sky130_fd_sc_hd__and2_1
Xinput31 B[8] VGND VGND VPWR VPWR net31 sky130_fd_sc_hd__clkbuf_2
X_106_ net25 net9 _052_ _053_ _054_ VGND VGND VPWR VPWR _060_ sky130_fd_sc_hd__a221oi_2
XFILLER_0_5_55 VGND VGND VPWR VPWR sky130_fd_sc_hd__fill_1
XFILLER_0_5_99 VPWR VGND VPWR VGND sky130_ef_sc_hd__decap_12
XTAP_85 VGND VPWR sky130_fd_sc_hd__tapvpwrvgnd_1
Xinput7 A[15] VGND VGND VPWR VPWR net7 sky130_fd_sc_hd__buf_1
XTAP_52 VGND VPWR sky130_fd_sc_hd__tapvpwrvgnd_1
XTAP_63 VGND VPWR sky130_fd_sc_hd__tapvpwrvgnd_1
XTAP_74 VGND VPWR sky130_fd_sc_hd__tapvpwrvgnd_1
XFILLER_0_20_116 VGND VGND VPWR VPWR sky130_fd_sc_hd__decap_6
X_199_ net22 net6 _034_ _044_ _046_ VGND VGND VPWR VPWR _047_ sky130_fd_sc_hd__a221o_1
XFILLER_0_2_23 VGND VGND VPWR VPWR sky130_fd_sc_hd__decap_4
XFILLER_0_2_78 VGND VGND VPWR VPWR sky130_fd_sc_hd__decap_6
XFILLER_0_17_57 VPWR VGND VPWR VGND sky130_ef_sc_hd__decap_12
X_122_ net29 net13 VGND VGND VPWR VPWR _073_ sky130_fd_sc_hd__xnor2_2
Xinput21 B[13] VGND VGND VPWR VPWR net21 sky130_fd_sc_hd__clkbuf_2
Xinput10 A[3] VGND VGND VPWR VPWR net10 sky130_fd_sc_hd__clkbuf_2
Xinput32 B[9] VGND VGND VPWR VPWR net32 sky130_fd_sc_hd__clkbuf_2
XFILLER_0_3_113 VPWR VGND VPWR VGND sky130_ef_sc_hd__decap_12
X_105_ net25 net9 VGND VGND VPWR VPWR _059_ sky130_fd_sc_hd__nor2_1
XFILLER_0_8_55 VPWR VGND VPWR VGND sky130_ef_sc_hd__decap_12
XFILLER_0_12_7 VPWR VGND VPWR VGND sky130_ef_sc_hd__decap_12
XFILLER_0_17_122 VGND VGND VPWR VPWR sky130_fd_sc_hd__decap_4
XFILLER_0_17_111 VGND VGND VPWR VPWR sky130_fd_sc_hd__fill_1
XFILLER_0_1_7 VPWR VGND VPWR VGND sky130_ef_sc_hd__decap_12
XFILLER_0_11_15 VPWR VGND VPWR VGND sky130_ef_sc_hd__decap_12
XTAP_86 VGND VPWR sky130_fd_sc_hd__tapvpwrvgnd_1
XTAP_53 VGND VPWR sky130_fd_sc_hd__tapvpwrvgnd_1
Xinput8 A[1] VGND VGND VPWR VPWR net8 sky130_fd_sc_hd__buf_1
XTAP_64 VGND VPWR sky130_fd_sc_hd__tapvpwrvgnd_1
XTAP_75 VGND VPWR sky130_fd_sc_hd__tapvpwrvgnd_1
XFILLER_0_9_130 VGND VGND VPWR VPWR sky130_fd_sc_hd__fill_1
X_198_ net22 net6 net21 net5 VGND VGND VPWR VPWR _046_ sky130_fd_sc_hd__o211a_1
XFILLER_0_2_46 VGND VGND VPWR VPWR sky130_fd_sc_hd__decap_3
XFILLER_0_17_69 VPWR VGND VPWR VGND sky130_ef_sc_hd__decap_12
XFILLER_0_17_36 VGND VGND VPWR VPWR sky130_fd_sc_hd__fill_1
X_121_ _068_ _072_ VGND VGND VPWR VPWR net44 sky130_fd_sc_hd__xnor2_1
Xinput22 B[14] VGND VGND VPWR VPWR net22 sky130_fd_sc_hd__buf_1
Xinput11 A[4] VGND VGND VPWR VPWR net11 sky130_fd_sc_hd__clkbuf_2
XFILLER_0_3_125 VGND VGND VPWR VPWR sky130_fd_sc_hd__decap_6
X_104_ _055_ _058_ VGND VGND VPWR VPWR net41 sky130_fd_sc_hd__xor2_1
XFILLER_0_18_90 VPWR VGND VPWR VGND sky130_ef_sc_hd__decap_12
XFILLER_0_8_67 VPWR VGND VPWR VGND sky130_ef_sc_hd__decap_12
XFILLER_0_5_57 VGND VGND VPWR VPWR sky130_fd_sc_hd__fill_2
XTAP_87 VGND VPWR sky130_fd_sc_hd__tapvpwrvgnd_1
XTAP_54 VGND VPWR sky130_fd_sc_hd__tapvpwrvgnd_1
Xinput9 A[2] VGND VGND VPWR VPWR net9 sky130_fd_sc_hd__clkbuf_2
XTAP_65 VGND VPWR sky130_fd_sc_hd__tapvpwrvgnd_1
XFILLER_0_11_27 VPWR VGND VPWR VGND sky130_ef_sc_hd__decap_12
XTAP_76 VGND VPWR sky130_fd_sc_hd__tapvpwrvgnd_1
X_197_ _031_ _044_ VGND VGND VPWR VPWR _045_ sky130_fd_sc_hd__and2b_1
XFILLER_0_12_81 VGND VGND VPWR VPWR sky130_fd_sc_hd__decap_3
X_120_ _059_ _060_ _069_ _071_ VGND VGND VPWR VPWR _072_ sky130_fd_sc_hd__o31a_1
Xinput12 A[5] VGND VGND VPWR VPWR net12 sky130_fd_sc_hd__clkbuf_2
Xinput23 B[15] VGND VGND VPWR VPWR net23 sky130_fd_sc_hd__clkbuf_1
XFILLER_0_0_107 VGND VGND VPWR VPWR sky130_fd_sc_hd__decap_4
X_103_ _056_ _057_ VGND VGND VPWR VPWR _058_ sky130_fd_sc_hd__and2_1
XFILLER_0_8_79 VGND VGND VPWR VPWR sky130_fd_sc_hd__decap_4
XFILLER_0_20_92 VPWR VGND VPWR VGND sky130_ef_sc_hd__decap_12
XFILLER_0_0_91 VGND VGND VPWR VPWR sky130_fd_sc_hd__decap_8
XFILLER_0_17_113 VGND VGND VPWR VPWR sky130_fd_sc_hd__fill_2
XFILLER_0_10_6 VPWR VGND VPWR VGND sky130_ef_sc_hd__decap_12
XFILLER_0_11_39 VPWR VGND VPWR VGND sky130_ef_sc_hd__decap_12
XTAP_88 VGND VPWR sky130_fd_sc_hd__tapvpwrvgnd_1
XTAP_77 VGND VPWR sky130_fd_sc_hd__tapvpwrvgnd_1
XTAP_44 VGND VPWR sky130_fd_sc_hd__tapvpwrvgnd_1
XTAP_55 VGND VPWR sky130_fd_sc_hd__tapvpwrvgnd_1
XTAP_66 VGND VPWR sky130_fd_sc_hd__tapvpwrvgnd_1
XFILLER_0_9_110 VGND VGND VPWR VPWR sky130_fd_sc_hd__fill_2
X_196_ _030_ _037_ VGND VGND VPWR VPWR _044_ sky130_fd_sc_hd__nor2_1
XFILLER_0_6_124 VGND VGND VPWR VPWR sky130_fd_sc_hd__decap_6
Xinput24 B[1] VGND VGND VPWR VPWR net24 sky130_fd_sc_hd__dlymetal6s2s_1
Xinput13 A[6] VGND VGND VPWR VPWR net13 sky130_fd_sc_hd__clkbuf_2
X_179_ _021_ _029_ VGND VGND VPWR VPWR net36 sky130_fd_sc_hd__xor2_1
XFILLER_0_0_119 VGND VGND VPWR VPWR sky130_fd_sc_hd__fill_2
X_102_ net25 net9 VGND VGND VPWR VPWR _057_ sky130_fd_sc_hd__or2_1
XFILLER_0_19_3 VPWR VGND VPWR VGND sky130_ef_sc_hd__decap_12
XFILLER_0_8_3 VPWR VGND VPWR VGND sky130_ef_sc_hd__decap_12
XTAP_89 VGND VPWR sky130_fd_sc_hd__tapvpwrvgnd_1
XTAP_78 VGND VPWR sky130_fd_sc_hd__tapvpwrvgnd_1
XTAP_45 VGND VPWR sky130_fd_sc_hd__tapvpwrvgnd_1
XTAP_56 VGND VPWR sky130_fd_sc_hd__tapvpwrvgnd_1
XTAP_67 VGND VPWR sky130_fd_sc_hd__tapvpwrvgnd_1
XPHY_40 VGND VGND VPWR VPWR sky130_fd_sc_hd__decap_3
X_195_ _037_ _043_ VGND VGND VPWR VPWR net38 sky130_fd_sc_hd__xnor2_1
XFILLER_0_2_27 VGND VGND VPWR VPWR sky130_fd_sc_hd__fill_1
XFILLER_0_10_120 VGND VGND VPWR VPWR sky130_fd_sc_hd__decap_6
Xinput25 B[2] VGND VGND VPWR VPWR net25 sky130_fd_sc_hd__clkbuf_2
Xinput14 A[7] VGND VGND VPWR VPWR net14 sky130_fd_sc_hd__clkbuf_2
X_178_ _009_ _023_ _024_ _093_ _028_ VGND VGND VPWR VPWR _029_ sky130_fd_sc_hd__o221a_1
X_101_ net25 net9 VGND VGND VPWR VPWR _056_ sky130_fd_sc_hd__nand2_1
XFILLER_0_8_15 VPWR VGND VPWR VGND sky130_ef_sc_hd__decap_12
XFILLER_0_14_29 VPWR VGND VPWR VGND sky130_ef_sc_hd__decap_12
XFILLER_0_0_71 VGND VGND VPWR VPWR sky130_fd_sc_hd__fill_2
XFILLER_0_17_126 VGND VGND VPWR VPWR sky130_fd_sc_hd__fill_1
XTAP_79 VGND VPWR sky130_fd_sc_hd__tapvpwrvgnd_1
XTAP_46 VGND VPWR sky130_fd_sc_hd__tapvpwrvgnd_1
XTAP_57 VGND VPWR sky130_fd_sc_hd__tapvpwrvgnd_1
XTAP_68 VGND VPWR sky130_fd_sc_hd__tapvpwrvgnd_1
XFILLER_0_14_118 VPWR VGND VPWR VGND sky130_ef_sc_hd__decap_12
XPHY_41 VGND VGND VPWR VPWR sky130_fd_sc_hd__decap_3
X_194_ _012_ _022_ _038_ _042_ VGND VGND VPWR VPWR _043_ sky130_fd_sc_hd__a31o_1
XFILLER_0_2_39 VGND VGND VPWR VPWR sky130_fd_sc_hd__decap_3
XPHY_30 VGND VGND VPWR VPWR sky130_fd_sc_hd__decap_3
X_177_ _025_ _026_ _027_ VGND VGND VPWR VPWR _028_ sky130_fd_sc_hd__a21o_1
Xinput15 A[8] VGND VGND VPWR VPWR net15 sky130_fd_sc_hd__clkbuf_2
Xinput26 B[3] VGND VGND VPWR VPWR net26 sky130_fd_sc_hd__clkbuf_2
X_100_ _052_ _053_ _054_ VGND VGND VPWR VPWR _055_ sky130_fd_sc_hd__a21o_1
XFILLER_0_8_27 VGND VGND VPWR VPWR sky130_fd_sc_hd__fill_1
XFILLER_0_18_83 VGND VGND VPWR VPWR sky130_fd_sc_hd__fill_1
XFILLER_0_0_83 VGND VGND VPWR VPWR sky130_fd_sc_hd__fill_1
XFILLER_0_5_39 VPWR VGND VPWR VGND sky130_ef_sc_hd__decap_12
XFILLER_0_15_95 VPWR VGND VPWR VGND sky130_ef_sc_hd__decap_12
XFILLER_0_17_105 VGND VGND VPWR VPWR sky130_fd_sc_hd__decap_6
XTAP_47 VGND VPWR sky130_fd_sc_hd__tapvpwrvgnd_1
XTAP_58 VGND VPWR sky130_fd_sc_hd__tapvpwrvgnd_1
XTAP_69 VGND VPWR sky130_fd_sc_hd__tapvpwrvgnd_1
XPHY_42 VGND VGND VPWR VPWR sky130_fd_sc_hd__decap_3
X_193_ _010_ _022_ _038_ _041_ VGND VGND VPWR VPWR _042_ sky130_fd_sc_hd__a31o_1
XPHY_31 VGND VGND VPWR VPWR sky130_fd_sc_hd__decap_3
XFILLER_0_6_82 VGND VGND VPWR VPWR sky130_fd_sc_hd__fill_2
XPHY_20 VGND VGND VPWR VPWR sky130_fd_sc_hd__decap_3
XFILLER_0_2_29 VGND VGND VPWR VPWR sky130_fd_sc_hd__decap_3
XFILLER_0_6_105 VGND VGND VPWR VPWR sky130_fd_sc_hd__fill_2
XFILLER_0_12_41 VGND VGND VPWR VPWR sky130_fd_sc_hd__decap_4
XFILLER_0_12_85 VPWR VGND VPWR VGND sky130_ef_sc_hd__decap_12