* NGSPICE file created from booth.ext - technology: sky130A

* Black-box entry subcircuit for sky130_fd_sc_hd__tapvpwrvgnd_1 abstract view
.subckt sky130_fd_sc_hd__tapvpwrvgnd_1 VGND VPWR
.ends

* Black-box entry subcircuit for sky130_ef_sc_hd__decap_12 abstract view
.subckt sky130_ef_sc_hd__decap_12 VPWR VGND VPB VNB
.ends

* Black-box entry subcircuit for sky130_fd_sc_hd__o2bb2a_4 abstract view
.subckt sky130_fd_sc_hd__o2bb2a_4 A1_N A2_N B1 B2 VGND VNB VPB VPWR X
.ends

* Black-box entry subcircuit for sky130_fd_sc_hd__clkbuf_1 abstract view
.subckt sky130_fd_sc_hd__clkbuf_1 A VGND VNB VPB VPWR X
.ends

* Black-box entry subcircuit for sky130_fd_sc_hd__decap_6 abstract view
.subckt sky130_fd_sc_hd__decap_6 VGND VNB VPB VPWR
.ends

* Black-box entry subcircuit for sky130_fd_sc_hd__decap_3 abstract view
.subckt sky130_fd_sc_hd__decap_3 VGND VNB VPB VPWR
.ends

* Black-box entry subcircuit for sky130_fd_sc_hd__fill_2 abstract view
.subckt sky130_fd_sc_hd__fill_2 VGND VNB VPB VPWR
.ends

* Black-box entry subcircuit for sky130_fd_sc_hd__decap_8 abstract view
.subckt sky130_fd_sc_hd__decap_8 VGND VNB VPB VPWR
.ends

* Black-box entry subcircuit for sky130_fd_sc_hd__inv_2 abstract view
.subckt sky130_fd_sc_hd__inv_2 A VGND VNB VPB VPWR Y
.ends

* Black-box entry subcircuit for sky130_fd_sc_hd__fill_1 abstract view
.subckt sky130_fd_sc_hd__fill_1 VGND VNB VPB VPWR
.ends

* Black-box entry subcircuit for sky130_fd_sc_hd__decap_4 abstract view
.subckt sky130_fd_sc_hd__decap_4 VGND VNB VPB VPWR
.ends

* Black-box entry subcircuit for sky130_fd_sc_hd__a31o_1 abstract view
.subckt sky130_fd_sc_hd__a31o_1 A1 A2 A3 B1 VGND VNB VPB VPWR X
.ends

* Black-box entry subcircuit for sky130_fd_sc_hd__o21ai_1 abstract view
.subckt sky130_fd_sc_hd__o21ai_1 A1 A2 B1 VGND VNB VPB VPWR Y
.ends

* Black-box entry subcircuit for sky130_fd_sc_hd__clkbuf_2 abstract view
.subckt sky130_fd_sc_hd__clkbuf_2 A VGND VNB VPB VPWR X
.ends

* Black-box entry subcircuit for sky130_fd_sc_hd__nor2_1 abstract view
.subckt sky130_fd_sc_hd__nor2_1 A B VGND VNB VPB VPWR Y
.ends

* Black-box entry subcircuit for sky130_fd_sc_hd__and2_1 abstract view
.subckt sky130_fd_sc_hd__and2_1 A B VGND VNB VPB VPWR X
.ends

* Black-box entry subcircuit for sky130_fd_sc_hd__clkbuf_4 abstract view
.subckt sky130_fd_sc_hd__clkbuf_4 A VGND VNB VPB VPWR X
.ends

* Black-box entry subcircuit for sky130_fd_sc_hd__or2b_1 abstract view
.subckt sky130_fd_sc_hd__or2b_1 A B_N VGND VNB VPB VPWR X
.ends

* Black-box entry subcircuit for sky130_fd_sc_hd__nand2_1 abstract view
.subckt sky130_fd_sc_hd__nand2_1 A B VGND VNB VPB VPWR Y
.ends

* Black-box entry subcircuit for sky130_fd_sc_hd__a21bo_1 abstract view
.subckt sky130_fd_sc_hd__a21bo_1 A1 A2 B1_N VGND VNB VPB VPWR X
.ends

* Black-box entry subcircuit for sky130_fd_sc_hd__mux2_1 abstract view
.subckt sky130_fd_sc_hd__mux2_1 A0 A1 S VGND VNB VPB VPWR X
.ends

* Black-box entry subcircuit for sky130_fd_sc_hd__dlygate4sd1_1 abstract view
.subckt sky130_fd_sc_hd__dlygate4sd1_1 A VGND VNB VPB VPWR X
.ends

* Black-box entry subcircuit for sky130_fd_sc_hd__o211ai_1 abstract view
.subckt sky130_fd_sc_hd__o211ai_1 A1 A2 B1 C1 VGND VNB VPB VPWR Y
.ends

* Black-box entry subcircuit for sky130_fd_sc_hd__and2b_1 abstract view
.subckt sky130_fd_sc_hd__and2b_1 A_N B VGND VNB VPB VPWR X
.ends

* Black-box entry subcircuit for sky130_fd_sc_hd__xnor2_2 abstract view
.subckt sky130_fd_sc_hd__xnor2_2 A B VGND VNB VPB VPWR Y
.ends

* Black-box entry subcircuit for sky130_fd_sc_hd__buf_1 abstract view
.subckt sky130_fd_sc_hd__buf_1 A VGND VNB VPB VPWR X
.ends

* Black-box entry subcircuit for sky130_fd_sc_hd__buf_6 abstract view
.subckt sky130_fd_sc_hd__buf_6 A VGND VNB VPB VPWR X
.ends

* Black-box entry subcircuit for sky130_fd_sc_hd__a211o_1 abstract view
.subckt sky130_fd_sc_hd__a211o_1 A1 A2 B1 C1 VGND VNB VPB VPWR X
.ends

* Black-box entry subcircuit for sky130_fd_sc_hd__xnor2_1 abstract view
.subckt sky130_fd_sc_hd__xnor2_1 A B VGND VNB VPB VPWR Y
.ends

* Black-box entry subcircuit for sky130_fd_sc_hd__or3b_1 abstract view
.subckt sky130_fd_sc_hd__or3b_1 A B C_N VGND VNB VPB VPWR X
.ends

* Black-box entry subcircuit for sky130_fd_sc_hd__a21oi_2 abstract view
.subckt sky130_fd_sc_hd__a21oi_2 A1 A2 B1 VGND VNB VPB VPWR Y
.ends

* Black-box entry subcircuit for sky130_fd_sc_hd__a21oi_1 abstract view
.subckt sky130_fd_sc_hd__a21oi_1 A1 A2 B1 VGND VNB VPB VPWR Y
.ends

* Black-box entry subcircuit for sky130_fd_sc_hd__a21o_1 abstract view
.subckt sky130_fd_sc_hd__a21o_1 A1 A2 B1 VGND VNB VPB VPWR X
.ends

* Black-box entry subcircuit for sky130_fd_sc_hd__o22a_1 abstract view
.subckt sky130_fd_sc_hd__o22a_1 A1 A2 B1 B2 VGND VNB VPB VPWR X
.ends

* Black-box entry subcircuit for sky130_fd_sc_hd__or2_1 abstract view
.subckt sky130_fd_sc_hd__or2_1 A B VGND VNB VPB VPWR X
.ends

* Black-box entry subcircuit for sky130_fd_sc_hd__o21a_2 abstract view
.subckt sky130_fd_sc_hd__o21a_2 A1 A2 B1 VGND VNB VPB VPWR X
.ends

* Black-box entry subcircuit for sky130_fd_sc_hd__a221o_1 abstract view
.subckt sky130_fd_sc_hd__a221o_1 A1 A2 B1 B2 C1 VGND VNB VPB VPWR X
.ends

* Black-box entry subcircuit for sky130_fd_sc_hd__mux2_4 abstract view
.subckt sky130_fd_sc_hd__mux2_4 A0 A1 S VGND VNB VPB VPWR X
.ends

* Black-box entry subcircuit for sky130_fd_sc_hd__xor2_2 abstract view
.subckt sky130_fd_sc_hd__xor2_2 A B VGND VNB VPB VPWR X
.ends

* Black-box entry subcircuit for sky130_fd_sc_hd__o21a_1 abstract view
.subckt sky130_fd_sc_hd__o21a_1 A1 A2 B1 VGND VNB VPB VPWR X
.ends

* Black-box entry subcircuit for sky130_fd_sc_hd__nand2_2 abstract view
.subckt sky130_fd_sc_hd__nand2_2 A B VGND VNB VPB VPWR Y
.ends

* Black-box entry subcircuit for sky130_fd_sc_hd__and3_1 abstract view
.subckt sky130_fd_sc_hd__and3_1 A B C VGND VNB VPB VPWR X
.ends

* Black-box entry subcircuit for sky130_fd_sc_hd__and2_4 abstract view
.subckt sky130_fd_sc_hd__and2_4 A B VGND VNB VPB VPWR X
.ends

* Black-box entry subcircuit for sky130_fd_sc_hd__buf_8 abstract view
.subckt sky130_fd_sc_hd__buf_8 A VGND VNB VPB VPWR X
.ends

* Black-box entry subcircuit for sky130_fd_sc_hd__a2bb2o_1 abstract view
.subckt sky130_fd_sc_hd__a2bb2o_1 A1_N A2_N B1 B2 VGND VNB VPB VPWR X
.ends

* Black-box entry subcircuit for sky130_fd_sc_hd__xor2_1 abstract view
.subckt sky130_fd_sc_hd__xor2_1 A B VGND VNB VPB VPWR X
.ends

* Black-box entry subcircuit for sky130_fd_sc_hd__buf_2 abstract view
.subckt sky130_fd_sc_hd__buf_2 A VGND VNB VPB VPWR X
.ends

* Black-box entry subcircuit for sky130_fd_sc_hd__xor2_4 abstract view
.subckt sky130_fd_sc_hd__xor2_4 A B VGND VNB VPB VPWR X
.ends

* Black-box entry subcircuit for sky130_fd_sc_hd__a2bb2o_2 abstract view
.subckt sky130_fd_sc_hd__a2bb2o_2 A1_N A2_N B1 B2 VGND VNB VPB VPWR X
.ends

* Black-box entry subcircuit for sky130_fd_sc_hd__or4_4 abstract view
.subckt sky130_fd_sc_hd__or4_4 A B C D VGND VNB VPB VPWR X
.ends

* Black-box entry subcircuit for sky130_fd_sc_hd__o21ai_2 abstract view
.subckt sky130_fd_sc_hd__o21ai_2 A1 A2 B1 VGND VNB VPB VPWR Y
.ends

* Black-box entry subcircuit for sky130_fd_sc_hd__o31a_1 abstract view
.subckt sky130_fd_sc_hd__o31a_1 A1 A2 A3 B1 VGND VNB VPB VPWR X
.ends

* Black-box entry subcircuit for sky130_fd_sc_hd__and2_2 abstract view
.subckt sky130_fd_sc_hd__and2_2 A B VGND VNB VPB VPWR X
.ends

* Black-box entry subcircuit for sky130_fd_sc_hd__a32o_2 abstract view
.subckt sky130_fd_sc_hd__a32o_2 A1 A2 A3 B1 B2 VGND VNB VPB VPWR X
.ends

* Black-box entry subcircuit for sky130_fd_sc_hd__nand2b_4 abstract view
.subckt sky130_fd_sc_hd__nand2b_4 A_N B VGND VNB VPB VPWR Y
.ends

* Black-box entry subcircuit for sky130_fd_sc_hd__o211a_1 abstract view
.subckt sky130_fd_sc_hd__o211a_1 A1 A2 B1 C1 VGND VNB VPB VPWR X
.ends

* Black-box entry subcircuit for sky130_fd_sc_hd__a311o_1 abstract view
.subckt sky130_fd_sc_hd__a311o_1 A1 A2 A3 B1 C1 VGND VNB VPB VPWR X
.ends

* Black-box entry subcircuit for sky130_fd_sc_hd__and3b_1 abstract view
.subckt sky130_fd_sc_hd__and3b_1 A_N B C VGND VNB VPB VPWR X
.ends

* Black-box entry subcircuit for sky130_fd_sc_hd__o21bai_2 abstract view
.subckt sky130_fd_sc_hd__o21bai_2 A1 A2 B1_N VGND VNB VPB VPWR Y
.ends

* Black-box entry subcircuit for sky130_fd_sc_hd__o211ai_2 abstract view
.subckt sky130_fd_sc_hd__o211ai_2 A1 A2 B1 C1 VGND VNB VPB VPWR Y
.ends

* Black-box entry subcircuit for sky130_fd_sc_hd__o22ai_4 abstract view
.subckt sky130_fd_sc_hd__o22ai_4 A1 A2 B1 B2 VGND VNB VPB VPWR Y
.ends

* Black-box entry subcircuit for sky130_fd_sc_hd__dlymetal6s2s_1 abstract view
.subckt sky130_fd_sc_hd__dlymetal6s2s_1 A VGND VNB VPB VPWR X
.ends

* Black-box entry subcircuit for sky130_fd_sc_hd__o21ba_1 abstract view
.subckt sky130_fd_sc_hd__o21ba_1 A1 A2 B1_N VGND VNB VPB VPWR X
.ends

* Black-box entry subcircuit for sky130_fd_sc_hd__xnor2_4 abstract view
.subckt sky130_fd_sc_hd__xnor2_4 A B VGND VNB VPB VPWR Y
.ends

* Black-box entry subcircuit for sky130_fd_sc_hd__buf_12 abstract view
.subckt sky130_fd_sc_hd__buf_12 A VGND VNB VPB VPWR X
.ends

* Black-box entry subcircuit for sky130_fd_sc_hd__a21boi_2 abstract view
.subckt sky130_fd_sc_hd__a21boi_2 A1 A2 B1_N VGND VNB VPB VPWR Y
.ends

* Black-box entry subcircuit for sky130_fd_sc_hd__o221a_1 abstract view
.subckt sky130_fd_sc_hd__o221a_1 A1 A2 B1 B2 C1 VGND VNB VPB VPWR X
.ends

* Black-box entry subcircuit for sky130_fd_sc_hd__o22a_2 abstract view
.subckt sky130_fd_sc_hd__o22a_2 A1 A2 B1 B2 VGND VNB VPB VPWR X
.ends

* Black-box entry subcircuit for sky130_fd_sc_hd__nand3_1 abstract view
.subckt sky130_fd_sc_hd__nand3_1 A B C VGND VNB VPB VPWR Y
.ends

* Black-box entry subcircuit for sky130_fd_sc_hd__o2bb2a_1 abstract view
.subckt sky130_fd_sc_hd__o2bb2a_1 A1_N A2_N B1 B2 VGND VNB VPB VPWR X
.ends

* Black-box entry subcircuit for sky130_fd_sc_hd__buf_4 abstract view
.subckt sky130_fd_sc_hd__buf_4 A VGND VNB VPB VPWR X
.ends

* Black-box entry subcircuit for sky130_fd_sc_hd__mux2_2 abstract view
.subckt sky130_fd_sc_hd__mux2_2 A0 A1 S VGND VNB VPB VPWR X
.ends

* Black-box entry subcircuit for sky130_fd_sc_hd__or2b_2 abstract view
.subckt sky130_fd_sc_hd__or2b_2 A B_N VGND VNB VPB VPWR X
.ends

* Black-box entry subcircuit for sky130_fd_sc_hd__a211oi_2 abstract view
.subckt sky130_fd_sc_hd__a211oi_2 A1 A2 B1 C1 VGND VNB VPB VPWR Y
.ends

* Black-box entry subcircuit for sky130_fd_sc_hd__nor2b_2 abstract view
.subckt sky130_fd_sc_hd__nor2b_2 A B_N VGND VNB VPB VPWR Y
.ends

* Black-box entry subcircuit for sky130_fd_sc_hd__nand2_4 abstract view
.subckt sky130_fd_sc_hd__nand2_4 A B VGND VNB VPB VPWR Y
.ends

* Black-box entry subcircuit for sky130_fd_sc_hd__and3_4 abstract view
.subckt sky130_fd_sc_hd__and3_4 A B C VGND VNB VPB VPWR X
.ends

* Black-box entry subcircuit for sky130_fd_sc_hd__a41o_1 abstract view
.subckt sky130_fd_sc_hd__a41o_1 A1 A2 A3 A4 B1 VGND VNB VPB VPWR X
.ends

* Black-box entry subcircuit for sky130_fd_sc_hd__a22oi_1 abstract view
.subckt sky130_fd_sc_hd__a22oi_1 A1 A2 B1 B2 VGND VNB VPB VPWR Y
.ends

* Black-box entry subcircuit for sky130_fd_sc_hd__nor2_2 abstract view
.subckt sky130_fd_sc_hd__nor2_2 A B VGND VNB VPB VPWR Y
.ends

* Black-box entry subcircuit for sky130_fd_sc_hd__or2_4 abstract view
.subckt sky130_fd_sc_hd__or2_4 A B VGND VNB VPB VPWR X
.ends

* Black-box entry subcircuit for sky130_fd_sc_hd__or3_4 abstract view
.subckt sky130_fd_sc_hd__or3_4 A B C VGND VNB VPB VPWR X
.ends

* Black-box entry subcircuit for sky130_fd_sc_hd__o21ai_4 abstract view
.subckt sky130_fd_sc_hd__o21ai_4 A1 A2 B1 VGND VNB VPB VPWR Y
.ends

* Black-box entry subcircuit for sky130_fd_sc_hd__or3_1 abstract view
.subckt sky130_fd_sc_hd__or3_1 A B C VGND VNB VPB VPWR X
.ends

* Black-box entry subcircuit for sky130_fd_sc_hd__a31oi_1 abstract view
.subckt sky130_fd_sc_hd__a31oi_1 A1 A2 A3 B1 VGND VNB VPB VPWR Y
.ends

.subckt booth VGND VPWR multiplicand[0] multiplicand[1] multiplicand[2] multiplicand[3]
+ multiplicand[4] multiplicand[5] multiplicand[6] multiplicand[7] multiplier[0] multiplier[1]
+ multiplier[2] multiplier[3] multiplier[4] multiplier[5] multiplier[6] multiplier[7]
+ product[0] product[10] product[11] product[12] product[13] product[14] product[15]
+ product[1] product[2] product[3] product[4] product[5] product[6] product[7] product[8]
+ product[9]
XTAP_177 VGND VPWR sky130_fd_sc_hd__tapvpwrvgnd_1
XTAP_188 VGND VPWR sky130_fd_sc_hd__tapvpwrvgnd_1
XTAP_199 VGND VPWR sky130_fd_sc_hd__tapvpwrvgnd_1
XFILLER_0_17_211 VPWR VGND VPWR VGND sky130_ef_sc_hd__decap_12
X_501_ net10 _410_ _432_ _433_ VGND VGND VPWR VPWR _434_ sky130_fd_sc_hd__o2bb2a_4
XFILLER_0_23_225 VPWR VGND VPWR VGND sky130_ef_sc_hd__decap_12
Xrebuffer7 _174_ VGND VGND VPWR VPWR net39 sky130_fd_sc_hd__clkbuf_1
XFILLER_0_3_39 VGND VGND VPWR VPWR sky130_fd_sc_hd__decap_6
XFILLER_0_13_40 VGND VGND VPWR VPWR sky130_fd_sc_hd__decap_3
XFILLER_0_13_62 VGND VGND VPWR VPWR sky130_fd_sc_hd__decap_6
XFILLER_0_13_95 VPWR VGND VPWR VGND sky130_ef_sc_hd__decap_12
XFILLER_0_14_203 VPWR VGND VPWR VGND sky130_ef_sc_hd__decap_12
XFILLER_0_9_241 VGND VGND VPWR VPWR sky130_fd_sc_hd__fill_2
XFILLER_0_18_29 VGND VGND VPWR VPWR sky130_fd_sc_hd__fill_2
XFILLER_0_24_50 VGND VGND VPWR VPWR sky130_fd_sc_hd__decap_6
XFILLER_0_24_94 VGND VGND VPWR VPWR sky130_fd_sc_hd__decap_8
XFILLER_0_10_250 VGND VGND VPWR VPWR sky130_fd_sc_hd__fill_2
X_895_ _380_ VGND VGND VPWR VPWR _381_ sky130_fd_sc_hd__inv_2
XFILLER_0_0_29 VPWR VGND VPWR VGND sky130_ef_sc_hd__decap_12
XFILLER_0_43_139 VGND VGND VPWR VPWR sky130_fd_sc_hd__fill_1
XFILLER_0_28_103 VPWR VGND VPWR VGND sky130_ef_sc_hd__decap_12
XFILLER_0_3_225 VPWR VGND VPWR VGND sky130_ef_sc_hd__decap_12
XFILLER_0_10_41 VPWR VGND VPWR VGND sky130_ef_sc_hd__decap_12
XFILLER_0_10_85 VGND VGND VPWR VPWR sky130_fd_sc_hd__decap_8
XFILLER_0_19_169 VGND VGND VPWR VPWR sky130_fd_sc_hd__decap_4
XFILLER_0_42_194 VGND VGND VPWR VPWR sky130_fd_sc_hd__fill_2
X_680_ _430_ _014_ _153_ _154_ VGND VGND VPWR VPWR _158_ sky130_fd_sc_hd__a31o_1
X_878_ _338_ _362_ _339_ VGND VGND VPWR VPWR _363_ sky130_fd_sc_hd__o21ai_1
XFILLER_0_21_40 VPWR VGND VPWR VGND sky130_ef_sc_hd__decap_12
XFILLER_0_24_161 VPWR VGND VPWR VGND sky130_ef_sc_hd__decap_12
XFILLER_0_24_194 VGND VGND VPWR VPWR sky130_fd_sc_hd__fill_2
XFILLER_0_34_3 VPWR VGND VPWR VGND sky130_ef_sc_hd__decap_12
XFILLER_0_39_209 VPWR VGND VPWR VGND sky130_ef_sc_hd__decap_12
XFILLER_0_22_109 VPWR VGND VPWR VGND sky130_ef_sc_hd__decap_12
XFILLER_0_30_120 VGND VGND VPWR VPWR sky130_fd_sc_hd__decap_4
XFILLER_0_30_153 VPWR VGND VPWR VGND sky130_ef_sc_hd__decap_12
Xsplit8 _418_ VGND VGND VPWR VPWR net40 sky130_fd_sc_hd__clkbuf_2
X_801_ _279_ _280_ VGND VGND VPWR VPWR _282_ sky130_fd_sc_hd__nor2_1
X_732_ _070_ _203_ VGND VGND VPWR VPWR _209_ sky130_fd_sc_hd__and2_1
XFILLER_0_26_29 VPWR VGND VPWR VGND sky130_ef_sc_hd__decap_12
X_594_ _072_ VGND VGND VPWR VPWR _073_ sky130_fd_sc_hd__clkbuf_4
X_663_ net16 net15 VGND VGND VPWR VPWR _142_ sky130_fd_sc_hd__or2b_1
XFILLER_0_38_253 VGND VGND VPWR VPWR sky130_fd_sc_hd__decap_4
Xrebuffer17 net48 VGND VGND VPWR VPWR net49 sky130_fd_sc_hd__clkbuf_1
XFILLER_0_16_62 VPWR VGND VPWR VGND sky130_ef_sc_hd__decap_12
XFILLER_0_8_169 VGND VGND VPWR VPWR sky130_fd_sc_hd__fill_2
XFILLER_0_12_197 VGND VGND VPWR VPWR sky130_fd_sc_hd__decap_8
Xoutput31 net31 VGND VGND VPWR VPWR product[8] sky130_fd_sc_hd__clkbuf_4
Xoutput20 net20 VGND VGND VPWR VPWR product[12] sky130_fd_sc_hd__clkbuf_4
XFILLER_0_37_39 VPWR VGND VPWR VGND sky130_ef_sc_hd__decap_12
X_715_ _131_ _139_ VGND VGND VPWR VPWR _193_ sky130_fd_sc_hd__nand2_1
X_577_ _043_ _052_ _055_ VGND VGND VPWR VPWR _056_ sky130_fd_sc_hd__a21bo_1
X_646_ _123_ _124_ _248_ VGND VGND VPWR VPWR _125_ sky130_fd_sc_hd__mux2_1
XFILLER_0_41_237 VPWR VGND VPWR VGND sky130_ef_sc_hd__decap_12
XTAP_123 VGND VPWR sky130_fd_sc_hd__tapvpwrvgnd_1
XTAP_112 VGND VPWR sky130_fd_sc_hd__tapvpwrvgnd_1
XTAP_101 VGND VPWR sky130_fd_sc_hd__tapvpwrvgnd_1
XTAP_134 VGND VPWR sky130_fd_sc_hd__tapvpwrvgnd_1
XTAP_145 VGND VPWR sky130_fd_sc_hd__tapvpwrvgnd_1
XTAP_156 VGND VPWR sky130_fd_sc_hd__tapvpwrvgnd_1
XTAP_167 VGND VPWR sky130_fd_sc_hd__tapvpwrvgnd_1
XTAP_178 VGND VPWR sky130_fd_sc_hd__tapvpwrvgnd_1
XTAP_189 VGND VPWR sky130_fd_sc_hd__tapvpwrvgnd_1
XFILLER_0_43_93 VGND VGND VPWR VPWR sky130_fd_sc_hd__fill_1
XFILLER_0_17_223 VGND VGND VPWR VPWR sky130_fd_sc_hd__fill_1
X_500_ _413_ _415_ _366_ VGND VGND VPWR VPWR _433_ sky130_fd_sc_hd__o21ai_1
Xrebuffer8 _442_ VGND VGND VPWR VPWR net57 sky130_fd_sc_hd__dlygate4sd1_1
XFILLER_0_23_204 VGND VGND VPWR VPWR sky130_fd_sc_hd__fill_1
XFILLER_0_23_237 VPWR VGND VPWR VGND sky130_ef_sc_hd__decap_12
X_629_ _083_ _095_ VGND VGND VPWR VPWR _108_ sky130_fd_sc_hd__nor2_1
XFILLER_0_1_153 VPWR VGND VPWR VGND sky130_ef_sc_hd__decap_12
XFILLER_0_14_215 VPWR VGND VPWR VGND sky130_ef_sc_hd__decap_12
XFILLER_0_34_29 VGND VGND VPWR VPWR sky130_fd_sc_hd__fill_2
XFILLER_0_11_207 VPWR VGND VPWR VGND sky130_ef_sc_hd__decap_12
XFILLER_0_40_83 VGND VGND VPWR VPWR sky130_fd_sc_hd__fill_1
XFILLER_0_6_212 VGND VGND VPWR VPWR sky130_fd_sc_hd__decap_3
XFILLER_0_4_83 VGND VGND VPWR VPWR sky130_fd_sc_hd__fill_1
X_894_ _015_ _259_ _369_ _379_ VGND VGND VPWR VPWR _380_ sky130_fd_sc_hd__o211ai_1
XFILLER_0_0_19 VGND VGND VPWR VPWR sky130_fd_sc_hd__decap_3
XFILLER_0_28_115 VGND VGND VPWR VPWR sky130_fd_sc_hd__decap_8
XFILLER_0_3_237 VPWR VGND VPWR VGND sky130_ef_sc_hd__decap_12
XFILLER_0_10_53 VPWR VGND VPWR VGND sky130_ef_sc_hd__decap_12
X_877_ _333_ _361_ VGND VGND VPWR VPWR _362_ sky130_fd_sc_hd__and2b_1
XFILLER_0_16_118 VPWR VGND VPWR VGND sky130_ef_sc_hd__decap_12
XFILLER_0_21_52 VGND VGND VPWR VPWR sky130_fd_sc_hd__decap_4
XFILLER_0_24_173 VGND VGND VPWR VPWR sky130_fd_sc_hd__decap_6
XFILLER_0_30_165 VGND VGND VPWR VPWR sky130_fd_sc_hd__decap_8
X_662_ _140_ VGND VGND VPWR VPWR _141_ sky130_fd_sc_hd__clkbuf_4
X_800_ net56 _440_ _141_ VGND VGND VPWR VPWR _280_ sky130_fd_sc_hd__mux2_1
X_731_ _205_ _207_ VGND VGND VPWR VPWR _208_ sky130_fd_sc_hd__xnor2_2
XFILLER_0_42_29 VPWR VGND VPWR VGND sky130_ef_sc_hd__decap_12
X_593_ net12 net13 VGND VGND VPWR VPWR _072_ sky130_fd_sc_hd__or2b_1
XFILLER_0_6_29 VPWR VGND VPWR VGND sky130_ef_sc_hd__decap_12
XFILLER_0_16_41 VGND VGND VPWR VPWR sky130_fd_sc_hd__decap_8
XFILLER_0_16_74 VGND VGND VPWR VPWR sky130_fd_sc_hd__decap_8
Xrebuffer18 _062_ VGND VGND VPWR VPWR net50 sky130_fd_sc_hd__buf_1
Xoutput21 net21 VGND VGND VPWR VPWR product[13] sky130_fd_sc_hd__buf_6
Xoutput32 net32 VGND VGND VPWR VPWR product[9] sky130_fd_sc_hd__clkbuf_4
X_714_ _190_ _191_ VGND VGND VPWR VPWR _192_ sky130_fd_sc_hd__nand2_1
X_645_ _000_ VGND VGND VPWR VPWR _124_ sky130_fd_sc_hd__inv_2
X_576_ _039_ _053_ _054_ _041_ VGND VGND VPWR VPWR _055_ sky130_fd_sc_hd__a211o_1
XFILLER_0_41_249 VGND VGND VPWR VPWR sky130_fd_sc_hd__decap_3
XFILLER_0_26_257 VGND VGND VPWR VPWR sky130_fd_sc_hd__fill_1
XTAP_124 VGND VPWR sky130_fd_sc_hd__tapvpwrvgnd_1
XTAP_113 VGND VPWR sky130_fd_sc_hd__tapvpwrvgnd_1
XTAP_102 VGND VPWR sky130_fd_sc_hd__tapvpwrvgnd_1
XTAP_135 VGND VPWR sky130_fd_sc_hd__tapvpwrvgnd_1
XTAP_146 VGND VPWR sky130_fd_sc_hd__tapvpwrvgnd_1
XTAP_157 VGND VPWR sky130_fd_sc_hd__tapvpwrvgnd_1
XTAP_168 VGND VPWR sky130_fd_sc_hd__tapvpwrvgnd_1
XTAP_179 VGND VPWR sky130_fd_sc_hd__tapvpwrvgnd_1
XFILLER_0_27_40 VPWR VGND VPWR VGND sky130_ef_sc_hd__decap_12
XFILLER_0_43_83 VGND VGND VPWR VPWR sky130_fd_sc_hd__fill_1
XFILLER_0_17_257 VGND VGND VPWR VPWR sky130_fd_sc_hd__fill_1
XFILLER_0_7_72 VGND VGND VPWR VPWR sky130_fd_sc_hd__decap_3
XFILLER_0_2_9 VPWR VGND VPWR VGND sky130_ef_sc_hd__decap_12
Xrebuffer9 _017_ VGND VGND VPWR VPWR net41 sky130_fd_sc_hd__clkbuf_1
XFILLER_0_23_249 VGND VGND VPWR VPWR sky130_fd_sc_hd__decap_8
X_628_ _105_ _106_ VGND VGND VPWR VPWR _107_ sky130_fd_sc_hd__xnor2_1
XFILLER_0_13_75 VGND VGND VPWR VPWR sky130_fd_sc_hd__decap_3
XFILLER_0_14_227 VPWR VGND VPWR VGND sky130_ef_sc_hd__decap_12
X_559_ _427_ _029_ VGND VGND VPWR VPWR _038_ sky130_fd_sc_hd__nand2_1
XFILLER_0_1_165 VGND VGND VPWR VPWR sky130_fd_sc_hd__decap_3
XFILLER_0_38_83 VGND VGND VPWR VPWR sky130_fd_sc_hd__fill_1
XFILLER_0_9_210 VPWR VGND VPWR VGND sky130_ef_sc_hd__decap_12
XFILLER_0_11_219 VGND VGND VPWR VPWR sky130_fd_sc_hd__decap_4
XFILLER_0_39_190 VGND VGND VPWR VPWR sky130_fd_sc_hd__fill_1
XFILLER_0_6_257 VGND VGND VPWR VPWR sky130_fd_sc_hd__fill_1
XFILLER_0_4_73 VGND VGND VPWR VPWR sky130_fd_sc_hd__fill_1
X_893_ _200_ _248_ _016_ VGND VGND VPWR VPWR _379_ sky130_fd_sc_hd__or3b_1
XFILLER_0_3_249 VGND VGND VPWR VPWR sky130_fd_sc_hd__decap_8
XFILLER_0_43_9 VGND VGND VPWR VPWR sky130_fd_sc_hd__decap_4
XFILLER_0_10_65 VPWR VGND VPWR VGND sky130_ef_sc_hd__decap_12
XFILLER_0_19_52 VGND VGND VPWR VPWR sky130_fd_sc_hd__decap_4
XFILLER_0_19_138 VGND VGND VPWR VPWR sky130_fd_sc_hd__fill_1
XFILLER_0_42_141 VPWR VGND VPWR VGND sky130_ef_sc_hd__decap_12
XFILLER_0_18_193 VGND VGND VPWR VPWR sky130_fd_sc_hd__decap_3
XFILLER_0_33_185 VPWR VGND VPWR VGND sky130_ef_sc_hd__decap_12
X_876_ _200_ _017_ _291_ VGND VGND VPWR VPWR _361_ sky130_fd_sc_hd__mux2_1
XFILLER_0_30_133 VGND VGND VPWR VPWR sky130_fd_sc_hd__decap_6
X_661_ net15 net16 VGND VGND VPWR VPWR _140_ sky130_fd_sc_hd__or2b_1
X_730_ _150_ _163_ _206_ VGND VGND VPWR VPWR _207_ sky130_fd_sc_hd__a21oi_2
X_592_ _070_ _033_ VGND VGND VPWR VPWR _071_ sky130_fd_sc_hd__and2_1
XFILLER_0_6_19 VGND VGND VPWR VPWR sky130_fd_sc_hd__fill_1
XFILLER_0_21_111 VGND VGND VPWR VPWR sky130_fd_sc_hd__fill_1
X_859_ _309_ VGND VGND VPWR VPWR _343_ sky130_fd_sc_hd__inv_2
Xrebuffer19 _216_ VGND VGND VPWR VPWR net51 sky130_fd_sc_hd__clkbuf_1
XFILLER_0_29_211 VPWR VGND VPWR VGND sky130_ef_sc_hd__decap_12
XFILLER_0_8_105 VPWR VGND VPWR VGND sky130_ef_sc_hd__decap_12
XFILLER_0_32_41 VGND VGND VPWR VPWR sky130_fd_sc_hd__decap_8
XFILLER_0_32_85 VPWR VGND VPWR VGND sky130_ef_sc_hd__decap_12
XFILLER_0_35_225 VGND VGND VPWR VPWR sky130_fd_sc_hd__decap_8
Xoutput22 net22 VGND VGND VPWR VPWR product[14] sky130_fd_sc_hd__buf_6
X_575_ _031_ _434_ VGND VGND VPWR VPWR _054_ sky130_fd_sc_hd__and2_1
X_713_ _188_ _189_ VGND VGND VPWR VPWR _191_ sky130_fd_sc_hd__nand2_1
X_644_ _438_ VGND VGND VPWR VPWR _123_ sky130_fd_sc_hd__inv_2
XFILLER_0_41_217 VGND VGND VPWR VPWR sky130_fd_sc_hd__decap_6
XTAP_114 VGND VPWR sky130_fd_sc_hd__tapvpwrvgnd_1
XTAP_103 VGND VPWR sky130_fd_sc_hd__tapvpwrvgnd_1
XTAP_125 VGND VPWR sky130_fd_sc_hd__tapvpwrvgnd_1
XTAP_136 VGND VPWR sky130_fd_sc_hd__tapvpwrvgnd_1
XTAP_147 VGND VPWR sky130_fd_sc_hd__tapvpwrvgnd_1
XTAP_158 VGND VPWR sky130_fd_sc_hd__tapvpwrvgnd_1
XTAP_169 VGND VPWR sky130_fd_sc_hd__tapvpwrvgnd_1
XFILLER_0_27_52 VGND VGND VPWR VPWR sky130_fd_sc_hd__decap_4
XFILLER_0_17_225 VPWR VGND VPWR VGND sky130_ef_sc_hd__decap_12
XFILLER_0_32_239 VGND VGND VPWR VPWR sky130_fd_sc_hd__decap_3
X_558_ _442_ _011_ _031_ VGND VGND VPWR VPWR _037_ sky130_fd_sc_hd__a21oi_1
X_627_ net59 _447_ _291_ VGND VGND VPWR VPWR _106_ sky130_fd_sc_hd__mux2_1
X_489_ _419_ _421_ VGND VGND VPWR VPWR _422_ sky130_fd_sc_hd__and2b_1
XFILLER_0_14_239 VPWR VGND VPWR VGND sky130_ef_sc_hd__decap_12
XFILLER_0_1_111 VGND VGND VPWR VPWR sky130_fd_sc_hd__fill_1
XFILLER_0_9_222 VGND VGND VPWR VPWR sky130_fd_sc_hd__fill_2
XFILLER_0_20_209 VPWR VGND VPWR VGND sky130_ef_sc_hd__decap_12
XFILLER_0_0_7 VPWR VGND VPWR VGND sky130_ef_sc_hd__decap_12
XFILLER_0_40_41 VGND VGND VPWR VPWR sky130_fd_sc_hd__decap_6
XFILLER_0_4_85 VPWR VGND VPWR VGND sky130_ef_sc_hd__decap_12
XFILLER_0_4_41 VPWR VGND VPWR VGND sky130_ef_sc_hd__decap_12
XFILLER_0_10_242 VGND VGND VPWR VPWR sky130_fd_sc_hd__fill_1
XFILLER_0_10_253 VGND VGND VPWR VPWR sky130_fd_sc_hd__decap_4
X_892_ _378_ VGND VGND VPWR VPWR net21 sky130_fd_sc_hd__clkbuf_1
XFILLER_0_28_128 VPWR VGND VPWR VGND sky130_ef_sc_hd__decap_12
XFILLER_0_36_194 VGND VGND VPWR VPWR sky130_fd_sc_hd__fill_2
XFILLER_0_9_19 VPWR VGND VPWR VGND sky130_ef_sc_hd__decap_12
XFILLER_0_10_11 VGND VGND VPWR VPWR sky130_fd_sc_hd__fill_2
XFILLER_0_10_77 VGND VGND VPWR VPWR sky130_fd_sc_hd__decap_6
XFILLER_0_27_172 VPWR VGND VPWR VGND sky130_ef_sc_hd__decap_12
XFILLER_0_42_197 VGND VGND VPWR VPWR sky130_fd_sc_hd__decap_6
XFILLER_0_42_186 VGND VGND VPWR VPWR sky130_fd_sc_hd__decap_8
XFILLER_0_42_153 VPWR VGND VPWR VGND sky130_ef_sc_hd__decap_12
XFILLER_0_25_109 VGND VGND VPWR VPWR sky130_fd_sc_hd__decap_3
XFILLER_0_33_197 VGND VGND VPWR VPWR sky130_fd_sc_hd__decap_4
X_875_ _358_ _344_ _359_ VGND VGND VPWR VPWR _360_ sky130_fd_sc_hd__a21o_1
XFILLER_0_24_197 VPWR VGND VPWR VGND sky130_ef_sc_hd__decap_12
XFILLER_0_1_75 VGND VGND VPWR VPWR sky130_fd_sc_hd__fill_1
X_591_ _069_ VGND VGND VPWR VPWR _070_ sky130_fd_sc_hd__clkbuf_4
X_660_ _270_ _122_ _135_ _138_ VGND VGND VPWR VPWR _139_ sky130_fd_sc_hd__o22a_1
XFILLER_0_21_167 VGND VGND VPWR VPWR sky130_fd_sc_hd__fill_1
X_858_ _340_ _341_ VGND VGND VPWR VPWR _342_ sky130_fd_sc_hd__xnor2_1
XFILLER_0_8_117 VPWR VGND VPWR VGND sky130_ef_sc_hd__decap_12
X_789_ _243_ _267_ VGND VGND VPWR VPWR _268_ sky130_fd_sc_hd__xnor2_2
XFILLER_0_29_223 VGND VGND VPWR VPWR sky130_fd_sc_hd__fill_1
XFILLER_0_32_64 VGND VGND VPWR VPWR sky130_fd_sc_hd__fill_1
XFILLER_0_32_97 VPWR VGND VPWR VGND sky130_ef_sc_hd__decap_12
XFILLER_0_12_145 VGND VGND VPWR VPWR sky130_fd_sc_hd__fill_1
XFILLER_0_32_3 VPWR VGND VPWR VGND sky130_ef_sc_hd__decap_12
Xoutput23 net23 VGND VGND VPWR VPWR product[15] sky130_fd_sc_hd__buf_6
X_712_ _188_ _189_ VGND VGND VPWR VPWR _190_ sky130_fd_sc_hd__or2_1
X_574_ net57 _011_ VGND VGND VPWR VPWR _053_ sky130_fd_sc_hd__xnor2_2
X_643_ _324_ net36 _121_ VGND VGND VPWR VPWR _122_ sky130_fd_sc_hd__o21ai_1
XTAP_126 VGND VPWR sky130_fd_sc_hd__tapvpwrvgnd_1
XTAP_115 VGND VPWR sky130_fd_sc_hd__tapvpwrvgnd_1
XTAP_104 VGND VPWR sky130_fd_sc_hd__tapvpwrvgnd_1
XTAP_137 VGND VPWR sky130_fd_sc_hd__tapvpwrvgnd_1
XTAP_148 VGND VPWR sky130_fd_sc_hd__tapvpwrvgnd_1
XTAP_159 VGND VPWR sky130_fd_sc_hd__tapvpwrvgnd_1
XFILLER_0_27_31 VGND VGND VPWR VPWR sky130_fd_sc_hd__decap_4
XFILLER_0_43_85 VGND VGND VPWR VPWR sky130_fd_sc_hd__decap_8
XFILLER_0_43_41 VPWR VGND VPWR VGND sky130_ef_sc_hd__decap_12
XFILLER_0_17_237 VPWR VGND VPWR VGND sky130_ef_sc_hd__decap_12
XFILLER_0_40_251 VGND VGND VPWR VPWR sky130_fd_sc_hd__fill_1
X_557_ _442_ _011_ VGND VGND VPWR VPWR _036_ sky130_fd_sc_hd__or2_1
X_626_ _098_ _101_ _104_ VGND VGND VPWR VPWR _105_ sky130_fd_sc_hd__o21a_2
X_488_ _417_ _411_ _418_ _377_ _420_ VGND VGND VPWR VPWR _421_ sky130_fd_sc_hd__a221o_1
XFILLER_0_22_240 VGND VGND VPWR VPWR sky130_fd_sc_hd__fill_1
XFILLER_0_38_85 VPWR VGND VPWR VGND sky130_ef_sc_hd__decap_12
X_609_ _438_ _000_ _073_ VGND VGND VPWR VPWR _088_ sky130_fd_sc_hd__mux2_1
XFILLER_0_40_53 VPWR VGND VPWR VGND sky130_ef_sc_hd__decap_12
XFILLER_0_6_237 VPWR VGND VPWR VGND sky130_ef_sc_hd__decap_12
XFILLER_0_6_204 VGND VGND VPWR VPWR sky130_fd_sc_hd__decap_8
XFILLER_0_40_75 VGND VGND VPWR VPWR sky130_fd_sc_hd__decap_8
XFILLER_0_4_97 VGND VGND VPWR VPWR sky130_fd_sc_hd__decap_6
XFILLER_0_4_53 VPWR VGND VPWR VGND sky130_ef_sc_hd__decap_12
X_891_ _370_ _376_ _143_ VGND VGND VPWR VPWR _378_ sky130_fd_sc_hd__mux2_4
XFILLER_0_27_184 VPWR VGND VPWR VGND sky130_ef_sc_hd__decap_12
XFILLER_0_42_165 VPWR VGND VPWR VGND sky130_ef_sc_hd__decap_12
XFILLER_0_2_251 VGND VGND VPWR VPWR sky130_fd_sc_hd__fill_1
XFILLER_0_33_132 VPWR VGND VPWR VGND sky130_ef_sc_hd__decap_12
X_874_ _340_ _341_ VGND VGND VPWR VPWR _359_ sky130_fd_sc_hd__nor2_1
XFILLER_0_1_54 VGND VGND VPWR VPWR sky130_fd_sc_hd__fill_2
XFILLER_0_15_154 VGND VGND VPWR VPWR sky130_fd_sc_hd__fill_2
X_590_ _334_ _345_ VGND VGND VPWR VPWR _069_ sky130_fd_sc_hd__and2_1
XFILLER_0_38_257 VGND VGND VPWR VPWR sky130_fd_sc_hd__fill_1
XFILLER_0_21_113 VPWR VGND VPWR VGND sky130_ef_sc_hd__decap_12
X_857_ net7 net40 _248_ VGND VGND VPWR VPWR _341_ sky130_fd_sc_hd__mux2_1
XFILLER_0_16_11 VGND VGND VPWR VPWR sky130_fd_sc_hd__decap_3
X_788_ _265_ _266_ VGND VGND VPWR VPWR _267_ sky130_fd_sc_hd__xor2_2
XFILLER_0_8_129 VGND VGND VPWR VPWR sky130_fd_sc_hd__fill_2
XFILLER_0_25_3 VGND VGND VPWR VPWR sky130_fd_sc_hd__fill_2
Xoutput24 net24 VGND VGND VPWR VPWR product[1] sky130_fd_sc_hd__clkbuf_4
X_642_ _313_ _105_ VGND VGND VPWR VPWR _121_ sky130_fd_sc_hd__nand2_1
X_711_ _438_ _000_ _141_ VGND VGND VPWR VPWR _189_ sky130_fd_sc_hd__mux2_1
X_573_ _046_ _050_ _051_ VGND VGND VPWR VPWR _052_ sky130_fd_sc_hd__a21o_1
XFILLER_0_26_216 VPWR VGND VPWR VGND sky130_ef_sc_hd__decap_12
XTAP_127 VGND VPWR sky130_fd_sc_hd__tapvpwrvgnd_1
XTAP_116 VGND VPWR sky130_fd_sc_hd__tapvpwrvgnd_1
XTAP_105 VGND VPWR sky130_fd_sc_hd__tapvpwrvgnd_1
XTAP_138 VGND VPWR sky130_fd_sc_hd__tapvpwrvgnd_1
XTAP_149 VGND VPWR sky130_fd_sc_hd__tapvpwrvgnd_1
X_909_ _131_ _270_ VGND VGND VPWR VPWR _394_ sky130_fd_sc_hd__nand2_1
XFILLER_0_43_53 VGND VGND VPWR VPWR sky130_fd_sc_hd__decap_3
XFILLER_0_17_249 VGND VGND VPWR VPWR sky130_fd_sc_hd__decap_8
XFILLER_0_7_64 VGND VGND VPWR VPWR sky130_fd_sc_hd__decap_8
XFILLER_0_4_176 VGND VGND VPWR VPWR sky130_fd_sc_hd__fill_2
X_625_ _102_ _068_ _071_ _103_ VGND VGND VPWR VPWR _104_ sky130_fd_sc_hd__a211o_1
X_487_ net6 _411_ VGND VGND VPWR VPWR _420_ sky130_fd_sc_hd__nor2_1
X_556_ _033_ _034_ VGND VGND VPWR VPWR _035_ sky130_fd_sc_hd__xnor2_2
XFILLER_0_1_113 VPWR VGND VPWR VGND sky130_ef_sc_hd__decap_12
XFILLER_0_38_97 VGND VGND VPWR VPWR sky130_fd_sc_hd__decap_8
X_608_ _084_ _085_ _086_ VGND VGND VPWR VPWR _087_ sky130_fd_sc_hd__o21a_1
XFILLER_0_24_11 VGND VGND VPWR VPWR sky130_fd_sc_hd__decap_3
XFILLER_0_40_65 VGND VGND VPWR VPWR sky130_fd_sc_hd__fill_1
X_539_ _015_ _016_ VGND VGND VPWR VPWR _018_ sky130_fd_sc_hd__nor2_1
XFILLER_0_6_249 VGND VGND VPWR VPWR sky130_fd_sc_hd__decap_3
XFILLER_0_4_65 VGND VGND VPWR VPWR sky130_fd_sc_hd__decap_8
XFILLER_0_37_108 VGND VGND VPWR VPWR sky130_fd_sc_hd__decap_4
X_890_ _374_ _375_ VGND VGND VPWR VPWR _376_ sky130_fd_sc_hd__xnor2_1
XFILLER_0_19_44 VGND VGND VPWR VPWR sky130_fd_sc_hd__fill_1
XFILLER_0_35_76 VPWR VGND VPWR VGND sky130_ef_sc_hd__decap_12
XFILLER_0_42_177 VGND VGND VPWR VPWR sky130_fd_sc_hd__decap_6
XFILLER_0_27_196 VGND VGND VPWR VPWR sky130_fd_sc_hd__decap_4
XFILLER_0_18_185 VGND VGND VPWR VPWR sky130_fd_sc_hd__decap_8