* NGSPICE file created from mbe.ext - technology: sky130A

* Black-box entry subcircuit for sky130_fd_sc_hd__tapvpwrvgnd_1 abstract view
.subckt sky130_fd_sc_hd__tapvpwrvgnd_1 VGND VPWR
.ends

* Black-box entry subcircuit for sky130_fd_sc_hd__decap_6 abstract view
.subckt sky130_fd_sc_hd__decap_6 VGND VNB VPB VPWR
.ends

* Black-box entry subcircuit for sky130_fd_sc_hd__decap_8 abstract view
.subckt sky130_fd_sc_hd__decap_8 VGND VNB VPB VPWR
.ends

* Black-box entry subcircuit for sky130_fd_sc_hd__and3_1 abstract view
.subckt sky130_fd_sc_hd__and3_1 A B C VGND VNB VPB VPWR X
.ends

* Black-box entry subcircuit for sky130_fd_sc_hd__clkbuf_1 abstract view
.subckt sky130_fd_sc_hd__clkbuf_1 A VGND VNB VPB VPWR X
.ends

* Black-box entry subcircuit for sky130_fd_sc_hd__xnor2_2 abstract view
.subckt sky130_fd_sc_hd__xnor2_2 A B VGND VNB VPB VPWR Y
.ends

* Black-box entry subcircuit for sky130_ef_sc_hd__decap_12 abstract view
.subckt sky130_ef_sc_hd__decap_12 VPWR VGND VPB VNB
.ends

* Black-box entry subcircuit for sky130_fd_sc_hd__xnor2_1 abstract view
.subckt sky130_fd_sc_hd__xnor2_1 A B VGND VNB VPB VPWR Y
.ends

* Black-box entry subcircuit for sky130_fd_sc_hd__fill_1 abstract view
.subckt sky130_fd_sc_hd__fill_1 VGND VNB VPB VPWR
.ends

* Black-box entry subcircuit for sky130_fd_sc_hd__decap_4 abstract view
.subckt sky130_fd_sc_hd__decap_4 VGND VNB VPB VPWR
.ends

* Black-box entry subcircuit for sky130_fd_sc_hd__a21oi_4 abstract view
.subckt sky130_fd_sc_hd__a21oi_4 A1 A2 B1 VGND VNB VPB VPWR Y
.ends

* Black-box entry subcircuit for sky130_fd_sc_hd__and3_2 abstract view
.subckt sky130_fd_sc_hd__and3_2 A B C VGND VNB VPB VPWR X
.ends

* Black-box entry subcircuit for sky130_fd_sc_hd__nand2_1 abstract view
.subckt sky130_fd_sc_hd__nand2_1 A B VGND VNB VPB VPWR Y
.ends

* Black-box entry subcircuit for sky130_fd_sc_hd__fill_2 abstract view
.subckt sky130_fd_sc_hd__fill_2 VGND VNB VPB VPWR
.ends

* Black-box entry subcircuit for sky130_fd_sc_hd__decap_3 abstract view
.subckt sky130_fd_sc_hd__decap_3 VGND VNB VPB VPWR
.ends

* Black-box entry subcircuit for sky130_fd_sc_hd__clkbuf_4 abstract view
.subckt sky130_fd_sc_hd__clkbuf_4 A VGND VNB VPB VPWR X
.ends

* Black-box entry subcircuit for sky130_fd_sc_hd__a21o_1 abstract view
.subckt sky130_fd_sc_hd__a21o_1 A1 A2 B1 VGND VNB VPB VPWR X
.ends

* Black-box entry subcircuit for sky130_fd_sc_hd__and2_1 abstract view
.subckt sky130_fd_sc_hd__and2_1 A B VGND VNB VPB VPWR X
.ends

* Black-box entry subcircuit for sky130_fd_sc_hd__a221o_1 abstract view
.subckt sky130_fd_sc_hd__a221o_1 A1 A2 B1 B2 C1 VGND VNB VPB VPWR X
.ends

* Black-box entry subcircuit for sky130_fd_sc_hd__buf_1 abstract view
.subckt sky130_fd_sc_hd__buf_1 A VGND VNB VPB VPWR X
.ends

* Black-box entry subcircuit for sky130_fd_sc_hd__o21ai_1 abstract view
.subckt sky130_fd_sc_hd__o21ai_1 A1 A2 B1 VGND VNB VPB VPWR Y
.ends

* Black-box entry subcircuit for sky130_fd_sc_hd__and2b_1 abstract view
.subckt sky130_fd_sc_hd__and2b_1 A_N B VGND VNB VPB VPWR X
.ends

* Black-box entry subcircuit for sky130_fd_sc_hd__inv_2 abstract view
.subckt sky130_fd_sc_hd__inv_2 A VGND VNB VPB VPWR Y
.ends

* Black-box entry subcircuit for sky130_fd_sc_hd__a22o_1 abstract view
.subckt sky130_fd_sc_hd__a22o_1 A1 A2 B1 B2 VGND VNB VPB VPWR X
.ends

* Black-box entry subcircuit for sky130_fd_sc_hd__and3b_1 abstract view
.subckt sky130_fd_sc_hd__and3b_1 A_N B C VGND VNB VPB VPWR X
.ends

* Black-box entry subcircuit for sky130_fd_sc_hd__o21ai_2 abstract view
.subckt sky130_fd_sc_hd__o21ai_2 A1 A2 B1 VGND VNB VPB VPWR Y
.ends

* Black-box entry subcircuit for sky130_fd_sc_hd__buf_2 abstract view
.subckt sky130_fd_sc_hd__buf_2 A VGND VNB VPB VPWR X
.ends

* Black-box entry subcircuit for sky130_fd_sc_hd__and2_2 abstract view
.subckt sky130_fd_sc_hd__and2_2 A B VGND VNB VPB VPWR X
.ends

* Black-box entry subcircuit for sky130_fd_sc_hd__or4_4 abstract view
.subckt sky130_fd_sc_hd__or4_4 A B C D VGND VNB VPB VPWR X
.ends

* Black-box entry subcircuit for sky130_fd_sc_hd__nor3_1 abstract view
.subckt sky130_fd_sc_hd__nor3_1 A B C VGND VNB VPB VPWR Y
.ends

* Black-box entry subcircuit for sky130_fd_sc_hd__buf_4 abstract view
.subckt sky130_fd_sc_hd__buf_4 A VGND VNB VPB VPWR X
.ends

* Black-box entry subcircuit for sky130_fd_sc_hd__or3b_1 abstract view
.subckt sky130_fd_sc_hd__or3b_1 A B C_N VGND VNB VPB VPWR X
.ends

* Black-box entry subcircuit for sky130_fd_sc_hd__o21bai_1 abstract view
.subckt sky130_fd_sc_hd__o21bai_1 A1 A2 B1_N VGND VNB VPB VPWR Y
.ends

* Black-box entry subcircuit for sky130_fd_sc_hd__xor2_1 abstract view
.subckt sky130_fd_sc_hd__xor2_1 A B VGND VNB VPB VPWR X
.ends

* Black-box entry subcircuit for sky130_fd_sc_hd__o21a_1 abstract view
.subckt sky130_fd_sc_hd__o21a_1 A1 A2 B1 VGND VNB VPB VPWR X
.ends

* Black-box entry subcircuit for sky130_fd_sc_hd__a221oi_4 abstract view
.subckt sky130_fd_sc_hd__a221oi_4 A1 A2 B1 B2 C1 VGND VNB VPB VPWR Y
.ends

* Black-box entry subcircuit for sky130_fd_sc_hd__o21ba_1 abstract view
.subckt sky130_fd_sc_hd__o21ba_1 A1 A2 B1_N VGND VNB VPB VPWR X
.ends

* Black-box entry subcircuit for sky130_fd_sc_hd__or2_2 abstract view
.subckt sky130_fd_sc_hd__or2_2 A B VGND VNB VPB VPWR X
.ends

* Black-box entry subcircuit for sky130_fd_sc_hd__and3b_2 abstract view
.subckt sky130_fd_sc_hd__and3b_2 A_N B C VGND VNB VPB VPWR X
.ends

* Black-box entry subcircuit for sky130_fd_sc_hd__nor2_1 abstract view
.subckt sky130_fd_sc_hd__nor2_1 A B VGND VNB VPB VPWR Y
.ends

* Black-box entry subcircuit for sky130_fd_sc_hd__nor3b_2 abstract view
.subckt sky130_fd_sc_hd__nor3b_2 A B C_N VGND VNB VPB VPWR Y
.ends

* Black-box entry subcircuit for sky130_fd_sc_hd__a21oi_1 abstract view
.subckt sky130_fd_sc_hd__a21oi_1 A1 A2 B1 VGND VNB VPB VPWR Y
.ends

* Black-box entry subcircuit for sky130_fd_sc_hd__or2_1 abstract view
.subckt sky130_fd_sc_hd__or2_1 A B VGND VNB VPB VPWR X
.ends

* Black-box entry subcircuit for sky130_fd_sc_hd__or3_1 abstract view
.subckt sky130_fd_sc_hd__or3_1 A B C VGND VNB VPB VPWR X
.ends

* Black-box entry subcircuit for sky130_fd_sc_hd__nor2_4 abstract view
.subckt sky130_fd_sc_hd__nor2_4 A B VGND VNB VPB VPWR Y
.ends

* Black-box entry subcircuit for sky130_fd_sc_hd__nand2_2 abstract view
.subckt sky130_fd_sc_hd__nand2_2 A B VGND VNB VPB VPWR Y
.ends

* Black-box entry subcircuit for sky130_fd_sc_hd__a221o_2 abstract view
.subckt sky130_fd_sc_hd__a221o_2 A1 A2 B1 B2 C1 VGND VNB VPB VPWR X
.ends

* Black-box entry subcircuit for sky130_fd_sc_hd__a32o_1 abstract view
.subckt sky130_fd_sc_hd__a32o_1 A1 A2 A3 B1 B2 VGND VNB VPB VPWR X
.ends

* Black-box entry subcircuit for sky130_fd_sc_hd__or3_4 abstract view
.subckt sky130_fd_sc_hd__or3_4 A B C VGND VNB VPB VPWR X
.ends

* Black-box entry subcircuit for sky130_fd_sc_hd__a2bb2o_2 abstract view
.subckt sky130_fd_sc_hd__a2bb2o_2 A1_N A2_N B1 B2 VGND VNB VPB VPWR X
.ends

* Black-box entry subcircuit for sky130_fd_sc_hd__or2b_4 abstract view
.subckt sky130_fd_sc_hd__or2b_4 A B_N VGND VNB VPB VPWR X
.ends

* Black-box entry subcircuit for sky130_fd_sc_hd__xor2_2 abstract view
.subckt sky130_fd_sc_hd__xor2_2 A B VGND VNB VPB VPWR X
.ends

* Black-box entry subcircuit for sky130_fd_sc_hd__buf_6 abstract view
.subckt sky130_fd_sc_hd__buf_6 A VGND VNB VPB VPWR X
.ends

* Black-box entry subcircuit for sky130_fd_sc_hd__a221oi_2 abstract view
.subckt sky130_fd_sc_hd__a221oi_2 A1 A2 B1 B2 C1 VGND VNB VPB VPWR Y
.ends

* Black-box entry subcircuit for sky130_fd_sc_hd__or2b_1 abstract view
.subckt sky130_fd_sc_hd__or2b_1 A B_N VGND VNB VPB VPWR X
.ends

* Black-box entry subcircuit for sky130_fd_sc_hd__o31a_1 abstract view
.subckt sky130_fd_sc_hd__o31a_1 A1 A2 A3 B1 VGND VNB VPB VPWR X
.ends

* Black-box entry subcircuit for sky130_fd_sc_hd__or3_2 abstract view
.subckt sky130_fd_sc_hd__or3_2 A B C VGND VNB VPB VPWR X
.ends

* Black-box entry subcircuit for sky130_fd_sc_hd__a21o_4 abstract view
.subckt sky130_fd_sc_hd__a21o_4 A1 A2 B1 VGND VNB VPB VPWR X
.ends

* Black-box entry subcircuit for sky130_fd_sc_hd__dlymetal6s2s_1 abstract view
.subckt sky130_fd_sc_hd__dlymetal6s2s_1 A VGND VNB VPB VPWR X
.ends

* Black-box entry subcircuit for sky130_fd_sc_hd__nor4_1 abstract view
.subckt sky130_fd_sc_hd__nor4_1 A B C D VGND VNB VPB VPWR Y
.ends

* Black-box entry subcircuit for sky130_fd_sc_hd__clkbuf_2 abstract view
.subckt sky130_fd_sc_hd__clkbuf_2 A VGND VNB VPB VPWR X
.ends

* Black-box entry subcircuit for sky130_fd_sc_hd__or3b_4 abstract view
.subckt sky130_fd_sc_hd__or3b_4 A B C_N VGND VNB VPB VPWR X
.ends

* Black-box entry subcircuit for sky130_fd_sc_hd__a31o_1 abstract view
.subckt sky130_fd_sc_hd__a31o_1 A1 A2 A3 B1 VGND VNB VPB VPWR X
.ends

* Black-box entry subcircuit for sky130_fd_sc_hd__and2b_2 abstract view
.subckt sky130_fd_sc_hd__and2b_2 A_N B VGND VNB VPB VPWR X
.ends

* Black-box entry subcircuit for sky130_fd_sc_hd__xor2_4 abstract view
.subckt sky130_fd_sc_hd__xor2_4 A B VGND VNB VPB VPWR X
.ends

* Black-box entry subcircuit for sky130_fd_sc_hd__nand3_1 abstract view
.subckt sky130_fd_sc_hd__nand3_1 A B C VGND VNB VPB VPWR Y
.ends

* Black-box entry subcircuit for sky130_fd_sc_hd__mux2_1 abstract view
.subckt sky130_fd_sc_hd__mux2_1 A0 A1 S VGND VNB VPB VPWR X
.ends

* Black-box entry subcircuit for sky130_fd_sc_hd__a21bo_1 abstract view
.subckt sky130_fd_sc_hd__a21bo_1 A1 A2 B1_N VGND VNB VPB VPWR X
.ends

* Black-box entry subcircuit for sky130_fd_sc_hd__a21boi_2 abstract view
.subckt sky130_fd_sc_hd__a21boi_2 A1 A2 B1_N VGND VNB VPB VPWR Y
.ends

* Black-box entry subcircuit for sky130_fd_sc_hd__xnor2_4 abstract view
.subckt sky130_fd_sc_hd__xnor2_4 A B VGND VNB VPB VPWR Y
.ends

* Black-box entry subcircuit for sky130_fd_sc_hd__a21o_2 abstract view
.subckt sky130_fd_sc_hd__a21o_2 A1 A2 B1 VGND VNB VPB VPWR X
.ends

* Black-box entry subcircuit for sky130_fd_sc_hd__o31ai_4 abstract view
.subckt sky130_fd_sc_hd__o31ai_4 A1 A2 A3 B1 VGND VNB VPB VPWR Y
.ends

* Black-box entry subcircuit for sky130_fd_sc_hd__nor2b_4 abstract view
.subckt sky130_fd_sc_hd__nor2b_4 A B_N VGND VNB VPB VPWR Y
.ends

* Black-box entry subcircuit for sky130_fd_sc_hd__or2b_2 abstract view
.subckt sky130_fd_sc_hd__or2b_2 A B_N VGND VNB VPB VPWR X
.ends

* Black-box entry subcircuit for sky130_fd_sc_hd__a21boi_1 abstract view
.subckt sky130_fd_sc_hd__a21boi_1 A1 A2 B1_N VGND VNB VPB VPWR Y
.ends

* Black-box entry subcircuit for sky130_fd_sc_hd__a21boi_4 abstract view
.subckt sky130_fd_sc_hd__a21boi_4 A1 A2 B1_N VGND VNB VPB VPWR Y
.ends

* Black-box entry subcircuit for sky130_fd_sc_hd__a21oi_2 abstract view
.subckt sky130_fd_sc_hd__a21oi_2 A1 A2 B1 VGND VNB VPB VPWR Y
.ends

* Black-box entry subcircuit for sky130_fd_sc_hd__o41a_4 abstract view
.subckt sky130_fd_sc_hd__o41a_4 A1 A2 A3 A4 B1 VGND VNB VPB VPWR X
.ends

* Black-box entry subcircuit for sky130_fd_sc_hd__nor2_2 abstract view
.subckt sky130_fd_sc_hd__nor2_2 A B VGND VNB VPB VPWR Y
.ends

.subckt mbe A[0] A[1] A[2] A[3] A[4] A[5] A[6] A[7] B[0] B[1] B[2] B[3] B[4] B[5]
+ B[6] B[7] P[0] P[10] P[11] P[12] P[13] P[14] P[15] P[1] P[2] P[3] P[4] P[5] P[6]
+ P[7] P[8] P[9] VGND VPWR
XTAP_199 VGND VPWR sky130_fd_sc_hd__tapvpwrvgnd_1
XTAP_188 VGND VPWR sky130_fd_sc_hd__tapvpwrvgnd_1
XTAP_177 VGND VPWR sky130_fd_sc_hd__tapvpwrvgnd_1
XFILLER_0_27_82 VGND VGND VPWR VPWR sky130_fd_sc_hd__decap_6
XFILLER_0_7_92 VGND VGND VPWR VPWR sky130_fd_sc_hd__decap_8
X_294_ _215_ _223_ _228_ VGND VGND VPWR VPWR _229_ sky130_fd_sc_hd__and3_1
X_363_ _221_ _264_ _265_ VGND VGND VPWR VPWR _017_ sky130_fd_sc_hd__and3_1
Xrebuffer7 net41 VGND VGND VPWR VPWR net42 sky130_fd_sc_hd__clkbuf_1
X_432_ _081_ _083_ VGND VGND VPWR VPWR _084_ sky130_fd_sc_hd__xnor2_2
XFILLER_0_3_39 VPWR VGND VPWR VGND sky130_ef_sc_hd__decap_12
X_501_ _147_ _149_ VGND VGND VPWR VPWR net19 sky130_fd_sc_hd__xnor2_1
XFILLER_0_14_203 VGND VGND VPWR VPWR sky130_fd_sc_hd__fill_1
XFILLER_0_13_73 VGND VGND VPWR VPWR sky130_fd_sc_hd__decap_4
X_415_ _036_ _038_ _035_ VGND VGND VPWR VPWR _068_ sky130_fd_sc_hd__a21oi_4
X_346_ _000_ _257_ _258_ VGND VGND VPWR VPWR _001_ sky130_fd_sc_hd__and3_2
XFILLER_0_18_29 VPWR VGND VPWR VGND sky130_ef_sc_hd__decap_12
X_329_ _247_ _261_ VGND VGND VPWR VPWR _262_ sky130_fd_sc_hd__nand2_1
XFILLER_0_29_39 VGND VGND VPWR VPWR sky130_fd_sc_hd__fill_2
XFILLER_0_0_29 VPWR VGND VPWR VGND sky130_ef_sc_hd__decap_12
XFILLER_0_10_41 VPWR VGND VPWR VGND sky130_ef_sc_hd__decap_12
XFILLER_0_10_85 VGND VGND VPWR VPWR sky130_fd_sc_hd__fill_1
XFILLER_0_34_139 VGND VGND VPWR VPWR sky130_fd_sc_hd__fill_1
XFILLER_0_33_183 VGND VGND VPWR VPWR sky130_fd_sc_hd__fill_1
XFILLER_0_31_109 VGND VGND VPWR VPWR sky130_fd_sc_hd__decap_3
XFILLER_0_16_139 VGND VGND VPWR VPWR sky130_fd_sc_hd__fill_1
XFILLER_0_30_197 VGND VGND VPWR VPWR sky130_fd_sc_hd__decap_8
XFILLER_0_30_153 VGND VGND VPWR VPWR sky130_fd_sc_hd__decap_4
XFILLER_0_22_109 VPWR VGND VPWR VGND sky130_ef_sc_hd__decap_12
XFILLER_0_1_83 VGND VGND VPWR VPWR sky130_fd_sc_hd__fill_1
XFILLER_0_1_72 VGND VGND VPWR VPWR sky130_fd_sc_hd__fill_2
Xoutput31 net31 VGND VGND VPWR VPWR P[8] sky130_fd_sc_hd__clkbuf_4
Xoutput20 net20 VGND VGND VPWR VPWR P[12] sky130_fd_sc_hd__clkbuf_4
XTAP_189 VGND VPWR sky130_fd_sc_hd__tapvpwrvgnd_1
XTAP_178 VGND VPWR sky130_fd_sc_hd__tapvpwrvgnd_1
XTAP_167 VGND VPWR sky130_fd_sc_hd__tapvpwrvgnd_1
XTAP_156 VGND VPWR sky130_fd_sc_hd__tapvpwrvgnd_1
XTAP_145 VGND VPWR sky130_fd_sc_hd__tapvpwrvgnd_1
XTAP_134 VGND VPWR sky130_fd_sc_hd__tapvpwrvgnd_1
XTAP_123 VGND VPWR sky130_fd_sc_hd__tapvpwrvgnd_1
XFILLER_0_7_71 VPWR VGND VPWR VGND sky130_ef_sc_hd__decap_12
XTAP_101 VGND VPWR sky130_fd_sc_hd__tapvpwrvgnd_1
XTAP_112 VGND VPWR sky130_fd_sc_hd__tapvpwrvgnd_1
X_293_ _219_ _226_ _227_ VGND VGND VPWR VPWR _228_ sky130_fd_sc_hd__a21o_1
X_362_ net7 _218_ VGND VGND VPWR VPWR _016_ sky130_fd_sc_hd__and2_1
X_431_ _233_ _002_ _277_ _252_ _082_ VGND VGND VPWR VPWR _083_ sky130_fd_sc_hd__a221o_1
Xrebuffer8 _069_ VGND VGND VPWR VPWR net43 sky130_fd_sc_hd__buf_1
X_500_ _128_ _132_ _148_ VGND VGND VPWR VPWR _149_ sky130_fd_sc_hd__o21ai_1
XFILLER_0_1_142 VGND VGND VPWR VPWR sky130_fd_sc_hd__decap_8
XFILLER_0_34_29 VPWR VGND VPWR VGND sky130_ef_sc_hd__decap_12
X_414_ _065_ _066_ VGND VGND VPWR VPWR _067_ sky130_fd_sc_hd__and2b_1
X_345_ net14 VGND VGND VPWR VPWR _000_ sky130_fd_sc_hd__inv_2
XFILLER_0_11_207 VGND VGND VPWR VPWR sky130_fd_sc_hd__decap_3
X_328_ _256_ _260_ VGND VGND VPWR VPWR _261_ sky130_fd_sc_hd__xnor2_1
XFILLER_0_35_83 VGND VGND VPWR VPWR sky130_fd_sc_hd__fill_1
XFILLER_0_29_6 VPWR VGND VPWR VGND sky130_ef_sc_hd__decap_12
XFILLER_0_27_181 VGND VGND VPWR VPWR sky130_fd_sc_hd__decap_4
XFILLER_0_10_53 VPWR VGND VPWR VGND sky130_ef_sc_hd__decap_12
XFILLER_0_33_162 VGND VGND VPWR VPWR sky130_fd_sc_hd__fill_2
XFILLER_0_24_195 VGND VGND VPWR VPWR sky130_fd_sc_hd__fill_1
XFILLER_0_21_63 VGND VGND VPWR VPWR sky130_fd_sc_hd__fill_1
XFILLER_0_27_3 VGND VGND VPWR VPWR sky130_fd_sc_hd__fill_2
XFILLER_0_16_85 VPWR VGND VPWR VGND sky130_ef_sc_hd__decap_12
XFILLER_0_6_29 VPWR VGND VPWR VGND sky130_ef_sc_hd__decap_12
Xoutput32 net32 VGND VGND VPWR VPWR P[9] sky130_fd_sc_hd__clkbuf_4
Xoutput21 net21 VGND VGND VPWR VPWR P[13] sky130_fd_sc_hd__clkbuf_4
XTAP_179 VGND VPWR sky130_fd_sc_hd__tapvpwrvgnd_1
XTAP_168 VGND VPWR sky130_fd_sc_hd__tapvpwrvgnd_1
XTAP_157 VGND VPWR sky130_fd_sc_hd__tapvpwrvgnd_1
XTAP_146 VGND VPWR sky130_fd_sc_hd__tapvpwrvgnd_1
XTAP_135 VGND VPWR sky130_fd_sc_hd__tapvpwrvgnd_1
XTAP_124 VGND VPWR sky130_fd_sc_hd__tapvpwrvgnd_1
XTAP_102 VGND VPWR sky130_fd_sc_hd__tapvpwrvgnd_1
XTAP_113 VGND VPWR sky130_fd_sc_hd__tapvpwrvgnd_1
X_292_ net3 _218_ _221_ _220_ VGND VGND VPWR VPWR _227_ sky130_fd_sc_hd__a22o_1
X_361_ _013_ _014_ _219_ VGND VGND VPWR VPWR _015_ sky130_fd_sc_hd__and3b_1
X_430_ net4 _003_ _001_ _251_ VGND VGND VPWR VPWR _082_ sky130_fd_sc_hd__a22o_1
XFILLER_0_4_195 VGND VGND VPWR VPWR sky130_fd_sc_hd__fill_1
XFILLER_0_7_83 VGND VGND VPWR VPWR sky130_fd_sc_hd__decap_3
X_559_ _164_ _186_ _185_ VGND VGND VPWR VPWR _205_ sky130_fd_sc_hd__a21o_1
X_413_ net37 _039_ _064_ VGND VGND VPWR VPWR _066_ sky130_fd_sc_hd__o21ai_2
X_344_ _276_ VGND VGND VPWR VPWR _277_ sky130_fd_sc_hd__clkbuf_4
XFILLER_0_24_85 VGND VGND VPWR VPWR sky130_fd_sc_hd__fill_1
XFILLER_0_24_74 VGND VGND VPWR VPWR sky130_fd_sc_hd__decap_8
XFILLER_0_24_52 VGND VGND VPWR VPWR sky130_fd_sc_hd__decap_8
XFILLER_0_24_41 VGND VGND VPWR VPWR sky130_fd_sc_hd__decap_4
XFILLER_0_28_138 VGND VGND VPWR VPWR sky130_fd_sc_hd__fill_2
X_327_ _215_ _259_ VGND VGND VPWR VPWR _260_ sky130_fd_sc_hd__nand2_1
XFILLER_0_19_138 VPWR VGND VPWR VGND sky130_ef_sc_hd__decap_12
XFILLER_0_19_127 VGND VGND VPWR VPWR sky130_fd_sc_hd__decap_3
XFILLER_0_3_205 VGND VGND VPWR VPWR sky130_fd_sc_hd__decap_4
XFILLER_0_10_65 VGND VGND VPWR VPWR sky130_fd_sc_hd__decap_6
XFILLER_0_18_171 VPWR VGND VPWR VGND sky130_ef_sc_hd__decap_12
XFILLER_0_24_141 VPWR VGND VPWR VGND sky130_ef_sc_hd__decap_12
XFILLER_0_30_177 VGND VGND VPWR VPWR sky130_fd_sc_hd__decap_4
XFILLER_0_32_85 VPWR VGND VPWR VGND sky130_ef_sc_hd__decap_12
XFILLER_0_32_41 VPWR VGND VPWR VGND sky130_ef_sc_hd__decap_12
XFILLER_0_16_97 VPWR VGND VPWR VGND sky130_ef_sc_hd__decap_12
XFILLER_0_12_188 VGND VGND VPWR VPWR sky130_fd_sc_hd__decap_8
Xoutput22 net22 VGND VGND VPWR VPWR P[14] sky130_fd_sc_hd__buf_2
XFILLER_0_9_3 VPWR VGND VPWR VGND sky130_ef_sc_hd__decap_12
XTAP_169 VGND VPWR sky130_fd_sc_hd__tapvpwrvgnd_1
XFILLER_0_27_41 VPWR VGND VPWR VGND sky130_ef_sc_hd__decap_12
XTAP_158 VGND VPWR sky130_fd_sc_hd__tapvpwrvgnd_1
XTAP_147 VGND VPWR sky130_fd_sc_hd__tapvpwrvgnd_1
XTAP_136 VGND VPWR sky130_fd_sc_hd__tapvpwrvgnd_1
XTAP_125 VGND VPWR sky130_fd_sc_hd__tapvpwrvgnd_1
XTAP_114 VGND VPWR sky130_fd_sc_hd__tapvpwrvgnd_1
XTAP_103 VGND VPWR sky130_fd_sc_hd__tapvpwrvgnd_1
X_291_ _224_ _225_ VGND VGND VPWR VPWR _226_ sky130_fd_sc_hd__and2_2
X_360_ net5 net6 net7 _232_ VGND VGND VPWR VPWR _014_ sky130_fd_sc_hd__or4_4
XFILLER_0_4_141 VPWR VGND VPWR VGND sky130_ef_sc_hd__decap_12
XFILLER_0_4_163 VPWR VGND VPWR VGND sky130_ef_sc_hd__decap_12
XFILLER_0_7_51 VGND VGND VPWR VPWR sky130_fd_sc_hd__decap_4
XFILLER_0_23_206 VGND VGND VPWR VPWR sky130_fd_sc_hd__decap_4
XFILLER_0_13_98 VPWR VGND VPWR VGND sky130_ef_sc_hd__decap_12
XFILLER_0_13_54 VGND VGND VPWR VPWR sky130_fd_sc_hd__fill_2
X_558_ _202_ _203_ VGND VGND VPWR VPWR _204_ sky130_fd_sc_hd__and2b_1
X_489_ _134_ _137_ VGND VGND VPWR VPWR _138_ sky130_fd_sc_hd__xnor2_2
XFILLER_0_20_209 VGND VGND VPWR VPWR sky130_fd_sc_hd__fill_1
XFILLER_0_1_166 VGND VGND VPWR VPWR sky130_fd_sc_hd__fill_2
XFILLER_0_1_122 VPWR VGND VPWR VGND sky130_ef_sc_hd__decap_12
X_412_ net36 _039_ _064_ VGND VGND VPWR VPWR _065_ sky130_fd_sc_hd__nor3_1
X_343_ net14 _257_ _258_ VGND VGND VPWR VPWR _276_ sky130_fd_sc_hd__and3_1
XFILLER_0_0_7 VGND VGND VPWR VPWR sky130_fd_sc_hd__decap_8
XFILLER_0_24_97 VGND VGND VPWR VPWR sky130_fd_sc_hd__decap_4
XFILLER_0_4_41 VGND VGND VPWR VPWR sky130_fd_sc_hd__decap_6
XFILLER_0_4_85 VPWR VGND VPWR VGND sky130_ef_sc_hd__decap_12
XFILLER_0_35_85 VPWR VGND VPWR VGND sky130_ef_sc_hd__decap_12
XFILLER_0_28_106 VPWR VGND VPWR VGND sky130_ef_sc_hd__decap_12
X_326_ _257_ _258_ VGND VGND VPWR VPWR _259_ sky130_fd_sc_hd__and2_1
XFILLER_0_19_64 VPWR VGND VPWR VGND sky130_ef_sc_hd__decap_12
XFILLER_0_19_42 VPWR VGND VPWR VGND sky130_ef_sc_hd__decap_12
XFILLER_0_9_19 VPWR VGND VPWR VGND sky130_ef_sc_hd__decap_12
XFILLER_0_27_150 VGND VGND VPWR VPWR sky130_fd_sc_hd__decap_4
XFILLER_0_33_175 VGND VGND VPWR VPWR sky130_fd_sc_hd__decap_8
XFILLER_0_33_142 VPWR VGND VPWR VGND sky130_ef_sc_hd__decap_12
X_309_ _220_ _237_ _239_ _217_ _242_ VGND VGND VPWR VPWR _243_ sky130_fd_sc_hd__a221o_1
XFILLER_0_21_43 VPWR VGND VPWR VGND sky130_ef_sc_hd__decap_12
XFILLER_0_18_194 VGND VGND VPWR VPWR sky130_fd_sc_hd__fill_2
XFILLER_0_18_183 VGND VGND VPWR VPWR sky130_fd_sc_hd__decap_3
XFILLER_0_16_109 VPWR VGND VPWR VGND sky130_ef_sc_hd__decap_12
XFILLER_0_0_209 VGND VGND VPWR VPWR sky130_fd_sc_hd__fill_1
XFILLER_0_24_197 VGND VGND VPWR VPWR sky130_fd_sc_hd__decap_6
XFILLER_0_24_153 VPWR VGND VPWR VGND sky130_ef_sc_hd__decap_12
XFILLER_0_15_120 VGND VGND VPWR VPWR sky130_fd_sc_hd__decap_3
XFILLER_0_1_64 VGND VGND VPWR VPWR sky130_fd_sc_hd__decap_8
XFILLER_0_1_31 VPWR VGND VPWR VGND sky130_ef_sc_hd__decap_12
XFILLER_0_32_97 VPWR VGND VPWR VGND sky130_ef_sc_hd__decap_12
XFILLER_0_32_53 VGND VGND VPWR VPWR sky130_fd_sc_hd__decap_3
XFILLER_0_16_21 VGND VGND VPWR VPWR sky130_fd_sc_hd__decap_6
XFILLER_0_32_3 VPWR VGND VPWR VGND sky130_ef_sc_hd__decap_12
XFILLER_0_7_194 VGND VGND VPWR VPWR sky130_fd_sc_hd__decap_3
Xoutput23 net23 VGND VGND VPWR VPWR P[15] sky130_fd_sc_hd__buf_4
XFILLER_0_27_53 VGND VGND VPWR VPWR sky130_fd_sc_hd__decap_3
XTAP_159 VGND VPWR sky130_fd_sc_hd__tapvpwrvgnd_1
XTAP_148 VGND VPWR sky130_fd_sc_hd__tapvpwrvgnd_1
XTAP_137 VGND VPWR sky130_fd_sc_hd__tapvpwrvgnd_1
XTAP_126 VGND VPWR sky130_fd_sc_hd__tapvpwrvgnd_1
XTAP_115 VGND VPWR sky130_fd_sc_hd__tapvpwrvgnd_1
XTAP_104 VGND VPWR sky130_fd_sc_hd__tapvpwrvgnd_1
XFILLER_0_4_175 VPWR VGND VPWR VGND sky130_ef_sc_hd__decap_12
XFILLER_0_4_197 VPWR VGND VPWR VGND sky130_ef_sc_hd__decap_12
XFILLER_0_7_63 VGND VGND VPWR VPWR sky130_fd_sc_hd__decap_3
X_290_ net1 _217_ net3 VGND VGND VPWR VPWR _225_ sky130_fd_sc_hd__o21ai_1
XFILLER_0_13_11 VGND VGND VPWR VPWR sky130_fd_sc_hd__fill_1
X_557_ _181_ _189_ _201_ VGND VGND VPWR VPWR _203_ sky130_fd_sc_hd__or3b_1
X_488_ _094_ _136_ VGND VGND VPWR VPWR _137_ sky130_fd_sc_hd__xnor2_2
XFILLER_0_1_134 VGND VGND VPWR VPWR sky130_fd_sc_hd__fill_2
X_342_ _271_ _272_ _273_ VGND VGND VPWR VPWR _275_ sky130_fd_sc_hd__o21bai_1
X_411_ _061_ _063_ VGND VGND VPWR VPWR _064_ sky130_fd_sc_hd__xor2_1
XFILLER_0_4_97 VPWR VGND VPWR VGND sky130_ef_sc_hd__decap_12
XFILLER_0_28_118 VPWR VGND VPWR VGND sky130_ef_sc_hd__decap_12
X_325_ net12 net13 VGND VGND VPWR VPWR _258_ sky130_fd_sc_hd__nand2_1
XFILLER_0_19_76 VPWR VGND VPWR VGND sky130_ef_sc_hd__decap_12
XFILLER_0_19_54 VGND VGND VPWR VPWR sky130_fd_sc_hd__fill_2
XFILLER_0_35_97 VGND VGND VPWR VPWR sky130_fd_sc_hd__decap_4
XFILLER_0_27_162 VGND VGND VPWR VPWR sky130_fd_sc_hd__decap_6
XFILLER_0_33_198 VPWR VGND VPWR VGND sky130_ef_sc_hd__decap_12
XFILLER_0_33_154 VGND VGND VPWR VPWR sky130_fd_sc_hd__decap_8
XFILLER_0_18_151 VPWR VGND VPWR VGND sky130_ef_sc_hd__decap_12
X_308_ _240_ _241_ _215_ VGND VGND VPWR VPWR _242_ sky130_fd_sc_hd__o21a_1
XFILLER_0_24_165 VPWR VGND VPWR VGND sky130_ef_sc_hd__decap_12
XFILLER_0_21_55 VGND VGND VPWR VPWR sky130_fd_sc_hd__fill_1
XFILLER_0_21_33 VGND VGND VPWR VPWR sky130_fd_sc_hd__decap_3
XFILLER_0_21_11 VGND VGND VPWR VPWR sky130_fd_sc_hd__fill_1
XFILLER_0_1_43 VPWR VGND VPWR VGND sky130_ef_sc_hd__decap_12
XFILLER_0_30_135 VGND VGND VPWR VPWR sky130_fd_sc_hd__decap_4
XFILLER_0_21_113 VGND VGND VPWR VPWR sky130_fd_sc_hd__fill_2
XFILLER_0_25_3 VPWR VGND VPWR VGND sky130_ef_sc_hd__decap_12
Xoutput24 net24 VGND VGND VPWR VPWR P[1] sky130_fd_sc_hd__clkbuf_4
XTAP_149 VGND VPWR sky130_fd_sc_hd__tapvpwrvgnd_1
XTAP_138 VGND VPWR sky130_fd_sc_hd__tapvpwrvgnd_1
XTAP_127 VGND VPWR sky130_fd_sc_hd__tapvpwrvgnd_1
XTAP_116 VGND VPWR sky130_fd_sc_hd__tapvpwrvgnd_1
XTAP_105 VGND VPWR sky130_fd_sc_hd__tapvpwrvgnd_1
XFILLER_0_4_121 VPWR VGND VPWR VGND sky130_ef_sc_hd__decap_12
XFILLER_0_4_187 VGND VGND VPWR VPWR sky130_fd_sc_hd__fill_1
X_487_ _252_ _050_ _046_ _056_ _135_ VGND VGND VPWR VPWR _136_ sky130_fd_sc_hd__a221oi_4
XFILLER_0_13_34 VPWR VGND VPWR VGND sky130_ef_sc_hd__decap_12
XFILLER_0_1_113 VGND VGND VPWR VPWR sky130_fd_sc_hd__fill_2
X_556_ _181_ _189_ _201_ VGND VGND VPWR VPWR _202_ sky130_fd_sc_hd__o21ba_1
X_341_ _271_ _272_ _273_ VGND VGND VPWR VPWR _274_ sky130_fd_sc_hd__or3b_1
X_410_ _226_ _002_ _277_ _233_ _062_ VGND VGND VPWR VPWR _063_ sky130_fd_sc_hd__a221o_1
X_539_ _158_ _173_ _184_ VGND VGND VPWR VPWR _186_ sky130_fd_sc_hd__a21o_1
XFILLER_0_4_54 VPWR VGND VPWR VGND sky130_ef_sc_hd__decap_12
X_324_ net12 net13 VGND VGND VPWR VPWR _257_ sky130_fd_sc_hd__or2_2
XFILLER_0_27_196 VPWR VGND VPWR VGND sky130_ef_sc_hd__decap_12
XFILLER_0_19_119 VGND VGND VPWR VPWR sky130_fd_sc_hd__decap_8
XFILLER_0_19_99 VPWR VGND VPWR VGND sky130_ef_sc_hd__decap_12
XFILLER_0_19_88 VGND VGND VPWR VPWR sky130_fd_sc_hd__decap_3
XFILLER_0_33_133 VGND VGND VPWR VPWR sky130_fd_sc_hd__fill_2
XFILLER_0_33_111 VGND VGND VPWR VPWR sky130_fd_sc_hd__fill_1
XFILLER_0_18_163 VGND VGND VPWR VPWR sky130_fd_sc_hd__fill_2
XFILLER_0_18_141 VGND VGND VPWR VPWR sky130_fd_sc_hd__fill_1
XFILLER_0_24_177 VPWR VGND VPWR VGND sky130_ef_sc_hd__decap_12
X_307_ net12 net11 net10 VGND VGND VPWR VPWR _241_ sky130_fd_sc_hd__and3b_2
XFILLER_0_21_67 VGND VGND VPWR VPWR sky130_fd_sc_hd__decap_6
XFILLER_0_1_55 VGND VGND VPWR VPWR sky130_fd_sc_hd__fill_1
XFILLER_0_21_169 VPWR VGND VPWR VGND sky130_ef_sc_hd__decap_12
XFILLER_0_21_158 VGND VGND VPWR VPWR sky130_fd_sc_hd__fill_1
XFILLER_0_16_45 VPWR VGND VPWR VGND sky130_ef_sc_hd__decap_12
XFILLER_0_18_3 VGND VGND VPWR VPWR sky130_fd_sc_hd__decap_3
XFILLER_0_12_136 VGND VGND VPWR VPWR sky130_fd_sc_hd__decap_4
XFILLER_0_12_114 VPWR VGND VPWR VGND sky130_ef_sc_hd__decap_12
XFILLER_0_7_174 VPWR VGND VPWR VGND sky130_ef_sc_hd__decap_12
Xoutput25 net25 VGND VGND VPWR VPWR P[2] sky130_fd_sc_hd__buf_2
XFILLER_0_32_209 VGND VGND VPWR VPWR sky130_fd_sc_hd__fill_1
XFILLER_0_27_99 VPWR VGND VPWR VGND sky130_ef_sc_hd__decap_12
XFILLER_0_27_88 VGND VGND VPWR VPWR sky130_fd_sc_hd__fill_1
XTAP_139 VGND VPWR sky130_fd_sc_hd__tapvpwrvgnd_1
XTAP_128 VGND VPWR sky130_fd_sc_hd__tapvpwrvgnd_1
XTAP_117 VGND VPWR sky130_fd_sc_hd__tapvpwrvgnd_1
XPHY_0 VGND VGND VPWR VPWR sky130_fd_sc_hd__decap_3
XFILLER_0_4_133 VGND VGND VPWR VPWR sky130_fd_sc_hd__decap_6
XTAP_106 VGND VPWR sky130_fd_sc_hd__tapvpwrvgnd_1
XFILLER_0_7_3 VPWR VGND VPWR VGND sky130_ef_sc_hd__decap_12
X_486_ _251_ _051_ _048_ _263_ VGND VGND VPWR VPWR _135_ sky130_fd_sc_hd__a22o_1
XFILLER_0_13_46 VGND VGND VPWR VPWR sky130_fd_sc_hd__decap_8
XFILLER_0_1_169 VPWR VGND VPWR VGND sky130_ef_sc_hd__decap_12
XFILLER_0_1_158 VGND VGND VPWR VPWR sky130_fd_sc_hd__decap_8
XFILLER_0_1_103 VGND VGND VPWR VPWR sky130_fd_sc_hd__fill_1
X_555_ _174_ _200_ VGND VGND VPWR VPWR _201_ sky130_fd_sc_hd__xor2_1
X_340_ _250_ _254_ VGND VGND VPWR VPWR _273_ sky130_fd_sc_hd__and2_1
XFILLER_0_24_45 VGND VGND VPWR VPWR sky130_fd_sc_hd__fill_1
X_538_ _158_ _173_ _184_ VGND VGND VPWR VPWR _185_ sky130_fd_sc_hd__and3_1
XFILLER_0_4_66 VPWR VGND VPWR VGND sky130_ef_sc_hd__decap_12
X_469_ _117_ _118_ VGND VGND VPWR VPWR _119_ sky130_fd_sc_hd__nor2_1
X_323_ _244_ _255_ VGND VGND VPWR VPWR _256_ sky130_fd_sc_hd__xor2_1
XFILLER_0_3_209 VGND VGND VPWR VPWR sky130_fd_sc_hd__fill_1
XFILLER_0_35_77 VGND VGND VPWR VPWR sky130_fd_sc_hd__decap_6
XFILLER_0_18_131 VGND VGND VPWR VPWR sky130_fd_sc_hd__fill_1
XFILLER_0_34_9 VPWR VGND VPWR VGND sky130_ef_sc_hd__decap_12
X_306_ net10 net11 net12 VGND VGND VPWR VPWR _240_ sky130_fd_sc_hd__nor3b_2
XFILLER_0_24_189 VGND VGND VPWR VPWR sky130_fd_sc_hd__decap_6
XFILLER_0_24_101 VGND VGND VPWR VPWR sky130_fd_sc_hd__fill_1
XFILLER_0_21_57 VGND VGND VPWR VPWR sky130_fd_sc_hd__decap_6
XFILLER_0_15_167 VGND VGND VPWR VPWR sky130_fd_sc_hd__fill_1
XFILLER_0_21_126 VPWR VGND VPWR VGND sky130_ef_sc_hd__decap_12
XFILLER_0_16_57 VPWR VGND VPWR VGND sky130_ef_sc_hd__decap_12
XFILLER_0_12_126 VGND VGND VPWR VPWR sky130_fd_sc_hd__decap_3
XFILLER_0_8_109 VPWR VGND VPWR VGND sky130_ef_sc_hd__decap_12
Xoutput26 net26 VGND VGND VPWR VPWR P[3] sky130_fd_sc_hd__buf_2
X_571_ _214_ VGND VGND VPWR VPWR net27 sky130_fd_sc_hd__clkbuf_1
XFILLER_0_7_186 VGND VGND VPWR VPWR sky130_fd_sc_hd__decap_8
XTAP_129 VGND VPWR sky130_fd_sc_hd__tapvpwrvgnd_1
XTAP_118 VGND VPWR sky130_fd_sc_hd__tapvpwrvgnd_1
XPHY_1 VGND VGND VPWR VPWR sky130_fd_sc_hd__decap_3
XTAP_107 VGND VPWR sky130_fd_sc_hd__tapvpwrvgnd_1
XFILLER_0_30_3 VPWR VGND VPWR VGND sky130_ef_sc_hd__decap_12
XFILLER_0_7_55 VGND VGND VPWR VPWR sky130_fd_sc_hd__fill_1
X_485_ _133_ VGND VGND VPWR VPWR _134_ sky130_fd_sc_hd__clkbuf_4
X_554_ _198_ _199_ VGND VGND VPWR VPWR _200_ sky130_fd_sc_hd__nand2_1
X_399_ _050_ _051_ _215_ VGND VGND VPWR VPWR _052_ sky130_fd_sc_hd__o21a_1
X_537_ _174_ _183_ VGND VGND VPWR VPWR _184_ sky130_fd_sc_hd__xor2_1
XFILLER_0_4_78 VGND VGND VPWR VPWR sky130_fd_sc_hd__decap_6
X_468_ _096_ _099_ _095_ VGND VGND VPWR VPWR _118_ sky130_fd_sc_hd__a21oi_1
X_322_ _250_ _254_ VGND VGND VPWR VPWR _255_ sky130_fd_sc_hd__xor2_1
XFILLER_0_27_132 VGND VGND VPWR VPWR sky130_fd_sc_hd__decap_3
XFILLER_0_19_57 VGND VGND VPWR VPWR sky130_fd_sc_hd__fill_2
XFILLER_0_10_15 VPWR VGND VPWR VGND sky130_ef_sc_hd__decap_12
XFILLER_0_33_113 VPWR VGND VPWR VGND sky130_ef_sc_hd__decap_12
X_305_ _238_ _223_ VGND VGND VPWR VPWR _239_ sky130_fd_sc_hd__and2_2
XFILLER_0_24_135 VGND VGND VPWR VPWR sky130_fd_sc_hd__decap_4
XFILLER_0_21_25 VGND VGND VPWR VPWR sky130_fd_sc_hd__decap_8
XFILLER_0_30_127 VGND VGND VPWR VPWR sky130_fd_sc_hd__decap_3
XFILLER_0_1_79 VGND VGND VPWR VPWR sky130_fd_sc_hd__fill_1
XFILLER_0_21_138 VPWR VGND VPWR VGND sky130_ef_sc_hd__decap_12
XFILLER_0_29_205 VGND VGND VPWR VPWR sky130_fd_sc_hd__decap_4
XFILLER_0_16_69 VPWR VGND VPWR VGND sky130_ef_sc_hd__decap_12
XFILLER_0_12_105 VGND VGND VPWR VPWR sky130_fd_sc_hd__fill_2
Xoutput27 net27 VGND VGND VPWR VPWR P[4] sky130_fd_sc_hd__clkbuf_4
X_570_ _262_ _213_ VGND VGND VPWR VPWR _214_ sky130_fd_sc_hd__and2_1
XFILLER_0_7_165 VGND VGND VPWR VPWR sky130_fd_sc_hd__decap_3
XFILLER_0_27_57 VPWR VGND VPWR VGND sky130_ef_sc_hd__decap_12
XFILLER_0_17_208 VGND VGND VPWR VPWR sky130_fd_sc_hd__fill_2
XTAP_119 VGND VPWR sky130_fd_sc_hd__tapvpwrvgnd_1
XPHY_2 VGND VGND VPWR VPWR sky130_fd_sc_hd__decap_3
XTAP_108 VGND VPWR sky130_fd_sc_hd__tapvpwrvgnd_1
XFILLER_0_23_3 VPWR VGND VPWR VGND sky130_ef_sc_hd__decap_12
XFILLER_0_7_23 VGND VGND VPWR VPWR sky130_fd_sc_hd__fill_1
X_484_ net35 _069_ _111_ VGND VGND VPWR VPWR _133_ sky130_fd_sc_hd__a21o_1
X_553_ _190_ _191_ _197_ VGND VGND VPWR VPWR _199_ sky130_fd_sc_hd__o21ai_1
X_398_ net16 net15 net14 VGND VGND VPWR VPWR _051_ sky130_fd_sc_hd__and3b_2