*SPEF "ieee 1481-1999"
*DESIGN "rca"
*DATE "11:11:11 Fri 11 11, 1111"
*VENDOR "OpenRCX"
*PROGRAM "Parallel Extraction"
*VERSION "1.0"
*DESIGN_FLOW "NAME_SCOPE LOCAL" "PIN_CAP NONE"
*DIVIDER /
*DELIMITER :
*BUS_DELIMITER []
*T_UNIT 1 NS
*C_UNIT 1 PF
*R_UNIT 1 OHM
*L_UNIT 1 HENRY

*NAME_MAP
*1 A[0]
*2 A[1]
*3 A[2]
*4 A[3]
*5 A[4]
*6 A[5]
*7 A[6]
*8 A[7]
*9 B[0]
*10 B[1]
*11 B[2]
*12 B[3]
*13 B[4]
*14 B[5]
*15 B[6]
*16 B[7]
*17 SUM[0]
*18 SUM[1]
*19 SUM[2]
*20 SUM[3]
*21 SUM[4]
*22 SUM[5]
*23 SUM[6]
*24 SUM[7]
*27 _00_
*28 _01_
*29 _02_
*30 _03_
*31 _04_
*32 _05_
*33 _06_
*34 _07_
*35 _08_
*36 _09_
*37 _10_
*38 _11_
*39 _12_
*40 _13_
*41 _14_
*42 _15_
*43 _16_
*44 _17_
*45 _18_
*46 _19_
*47 _20_
*48 _21_
*49 _22_
*50 _23_
*51 _24_
*52 _25_
*53 net1
*54 net10
*55 net11
*56 net12
*57 net13
*58 net14
*59 net15
*60 net16
*61 net17
*62 net18
*63 net19
*64 net2
*65 net20
*66 net21
*67 net22
*68 net23
*69 net24
*70 net3
*71 net4
*72 net5
*73 net6
*74 net7
*75 net8
*76 net9
*77 FILLER_0_0_12
*78 FILLER_0_0_27
*79 FILLER_0_0_29
*80 FILLER_0_0_41
*81 FILLER_0_0_51
*82 FILLER_0_0_55
*83 FILLER_0_0_57
*84 FILLER_0_0_62
*85 FILLER_0_10_21
*86 FILLER_0_10_27
*87 FILLER_0_10_29
*88 FILLER_0_10_41
*89 FILLER_0_10_49
*90 FILLER_0_10_64
*91 FILLER_0_10_9
*92 FILLER_0_11_15
*93 FILLER_0_11_20
*94 FILLER_0_11_29
*95 FILLER_0_11_34
*96 FILLER_0_11_46
*97 FILLER_0_11_54
*98 FILLER_0_11_57
*99 FILLER_0_1_15
*100 FILLER_0_1_27
*101 FILLER_0_1_3
*102 FILLER_0_1_39
*103 FILLER_0_1_51
*104 FILLER_0_1_55
*105 FILLER_0_1_57
*106 FILLER_0_1_69
*107 FILLER_0_2_24
*108 FILLER_0_2_42
*109 FILLER_0_2_6
*110 FILLER_0_2_62
*111 FILLER_0_2_70
*112 FILLER_0_3_11
*113 FILLER_0_3_25
*114 FILLER_0_3_3
*115 FILLER_0_3_37
*116 FILLER_0_3_49
*117 FILLER_0_3_53
*118 FILLER_0_3_61
*119 FILLER_0_3_69
*120 FILLER_0_4_15
*121 FILLER_0_4_23
*122 FILLER_0_4_3
*123 FILLER_0_4_39
*124 FILLER_0_4_43
*125 FILLER_0_4_64
*126 FILLER_0_5_18
*127 FILLER_0_5_30
*128 FILLER_0_5_42
*129 FILLER_0_5_54
*130 FILLER_0_5_6
*131 FILLER_0_5_64
*132 FILLER_0_6_16
*133 FILLER_0_6_29
*134 FILLER_0_6_3
*135 FILLER_0_6_41
*136 FILLER_0_6_53
*137 FILLER_0_6_65
*138 FILLER_0_6_71
*139 FILLER_0_7_21
*140 FILLER_0_7_3
*141 FILLER_0_7_33
*142 FILLER_0_7_45
*143 FILLER_0_7_53
*144 FILLER_0_7_57
*145 FILLER_0_8_18
*146 FILLER_0_8_23
*147 FILLER_0_8_27
*148 FILLER_0_8_29
*149 FILLER_0_8_35
*150 FILLER_0_8_43
*151 FILLER_0_8_51
*152 FILLER_0_8_59
*153 FILLER_0_8_71
*154 FILLER_0_8_9
*155 FILLER_0_9_14
*156 FILLER_0_9_29
*157 FILLER_0_9_3
*158 FILLER_0_9_45
*159 FILLER_0_9_64
*160 PHY_0
*161 PHY_1
*162 PHY_10
*163 PHY_11
*164 PHY_12
*165 PHY_13
*166 PHY_14
*167 PHY_15
*168 PHY_16
*169 PHY_17
*170 PHY_18
*171 PHY_19
*172 PHY_2
*173 PHY_20
*174 PHY_21
*175 PHY_22
*176 PHY_23
*177 PHY_3
*178 PHY_4
*179 PHY_5
*180 PHY_6
*181 PHY_7
*182 PHY_8
*183 PHY_9
*184 TAP_24
*185 TAP_25
*186 TAP_26
*187 TAP_27
*188 TAP_28
*189 TAP_29
*190 TAP_30
*191 TAP_31
*192 TAP_32
*193 TAP_33
*194 TAP_34
*195 TAP_35
*196 TAP_36
*197 TAP_37
*198 _26_
*199 _27_
*200 _28_
*201 _29_
*202 _30_
*203 _31_
*204 _32_
*205 _33_
*206 _34_
*207 _35_
*208 _36_
*209 _37_
*210 _38_
*211 _39_
*212 _40_
*213 _41_
*214 _42_
*215 _43_
*216 _44_
*217 _45_
*218 _46_
*219 _47_
*220 _48_
*221 _49_
*222 _50_
*223 _51_
*224 _52_
*225 _53_
*226 _54_
*227 _55_
*228 _56_
*229 _57_
*230 _58_
*231 _59_
*232 input1
*233 input10
*234 input11
*235 input12
*236 input13
*237 input14
*238 input15
*239 input16
*240 input2
*241 input3
*242 input4
*243 input5
*244 input6
*245 input7
*246 input8
*247 input9
*248 output17
*249 output18
*250 output19
*251 output20
*252 output21
*253 output22
*254 output23
*255 output24

*PORTS
A[0] I
A[1] I
A[2] I
A[3] I
A[4] I
A[5] I
A[6] I
A[7] I
B[0] I
B[1] I
B[2] I
B[3] I
B[4] I
B[5] I
B[6] I
B[7] I
SUM[0] O
SUM[1] O
SUM[2] O
SUM[3] O
SUM[4] O
SUM[5] O
SUM[6] O
SUM[7] O

*D_NET *1 0.00114748
*CONN
*P A[0] I
*I *232:A I *D sky130_fd_sc_hd__dlymetal6s2s_1
*CAP
1 A[0] 0.000531098
2 *232:A 0.000531098
3 *232:A *245:A 8.52845e-05
*RES
1 A[0] *232:A 12.78 
*END

*D_NET *2 0.000435042
*CONN
*P A[1] I
*I *240:A I *D sky130_fd_sc_hd__buf_1
*CAP
1 A[1] 0.000217521
2 *240:A 0.000217521
3 *240:A *247:A 0
*RES
1 A[1] *240:A 6.38543 
*END

*D_NET *3 0.0010956
*CONN
*P A[2] I
*I *241:A I *D sky130_fd_sc_hd__clkbuf_1
*CAP
1 A[2] 0.00036093
2 *241:A 0.00036093
3 *241:A SUM[6] 0.000373743
*RES
1 A[2] *241:A 11.985 
*END

*D_NET *4 0.00206092
*CONN
*P A[3] I
*I *242:A I *D sky130_fd_sc_hd__buf_1
*CAP
1 A[3] 0.000837581
2 *242:A 0.000837581
3 *242:A SUM[3] 0
4 *242:A *53:16 0.000137037
5 *242:A *71:10 9.19395e-05
6 *242:A *74:16 0.000156786
*RES
1 A[3] *242:A 14.3129 
*END

*D_NET *5 0.000443345
*CONN
*P A[4] I
*I *243:A I *D sky130_fd_sc_hd__buf_1
*CAP
1 A[4] 0.000221673
2 *243:A 0.000221673
3 *243:A SUM[1] 0
*RES
1 A[4] *243:A 6.40043 
*END

*D_NET *6 0.00106214
*CONN
*P A[5] I
*I *244:A I *D sky130_fd_sc_hd__buf_1
*CAP
1 A[5] 0.000378027
2 *244:A 0.000378027
3 *244:A *234:A 0.000122797
4 *244:A *238:A 7.82597e-05
5 *244:A *55:18 5.13692e-05
6 *244:A *59:14 5.36544e-05
*RES
1 A[5] *244:A 9.4587 
*END

*D_NET *7 0.00211255
*CONN
*P A[6] I
*I *245:A I *D sky130_fd_sc_hd__buf_1
*CAP
1 A[6] 0.00101363
2 *245:A 0.00101363
3 *232:A *245:A 8.52845e-05
*RES
1 A[6] *245:A 20.37 
*END

*D_NET *8 0.00115591
*CONN
*P A[7] I
*I *246:A I *D sky130_fd_sc_hd__clkbuf_1
*CAP
1 A[7] 0.000304373
2 *246:A 0.000304373
3 *246:A *238:A 0.000547161
*RES
1 A[7] *246:A 12.375 
*END

*D_NET *9 0.000581486
*CONN
*P B[0] I
*I *247:A I *D sky130_fd_sc_hd__buf_1
*CAP
1 B[0] 0.000290743
2 *247:A 0.000290743
3 *240:A *247:A 0
*RES
1 B[0] *247:A 7.66043 
*END

*D_NET *10 0.00110042
*CONN
*P B[1] I
*I *233:A I *D sky130_fd_sc_hd__clkbuf_1
*CAP
1 B[1] 0.000445389
2 *233:A 0.000445389
3 *233:A *235:A 0.000161349
4 *233:A *236:A 4.82919e-05
*RES
1 B[1] *233:A 11.0954 
*END

*D_NET *11 0.00116965
*CONN
*P B[2] I
*I *234:A I *D sky130_fd_sc_hd__buf_1
*CAP
1 B[2] 0.000523424
2 *234:A 0.000523424
3 *244:A *234:A 0.000122797
*RES
1 B[2] *234:A 12.765 
*END

*D_NET *12 0.00178265
*CONN
*P B[3] I
*I *235:A I *D sky130_fd_sc_hd__buf_1
*CAP
1 B[3] 0.000771486
2 *235:A 0.000771486
3 *235:A *236:A 4.82919e-05
4 *235:A *54:10 3.00381e-05
5 *233:A *235:A 0.000161349
*RES
1 B[3] *235:A 17.865 
*END

*D_NET *13 0.000838675
*CONN
*P B[4] I
*I *236:A I *D sky130_fd_sc_hd__buf_1
*CAP
1 B[4] 0.000371046
2 *236:A 0.000371046
3 *233:A *236:A 4.82919e-05
4 *235:A *236:A 4.82919e-05
*RES
1 B[4] *236:A 10.35 
*END

*D_NET *14 0.000959711
*CONN
*P B[5] I
*I *237:A I *D sky130_fd_sc_hd__buf_1
*CAP
1 B[5] 0.000479856
2 *237:A 0.000479856
*RES
1 B[5] *237:A 11.985 
*END

*D_NET *15 0.00208116
*CONN
*P B[6] I
*I *238:A I *D sky130_fd_sc_hd__buf_1
*CAP
1 B[6] 0.000703219
2 *238:A 0.000703219
3 *238:A *59:14 4.93031e-05
4 *244:A *238:A 7.82597e-05
5 *246:A *238:A 0.000547161
*RES
1 B[6] *238:A 13.7129 
*END

*D_NET *16 0.000763257
*CONN
*P B[7] I
*I *239:A I *D sky130_fd_sc_hd__clkbuf_1
*CAP
1 B[7] 0.000381629
2 *239:A 0.000381629
*RES
1 B[7] *239:A 10.455 
*END

*D_NET *17 0.00132542
*CONN
*P SUM[0] O
*I *248:X O *D sky130_fd_sc_hd__clkbuf_4
*CAP
1 SUM[0] 0.00066271
2 *248:X 0.00066271
3 SUM[0] SUM[2] 0
*RES
1 *248:X SUM[0] 14.13 
*END

*D_NET *18 0.000612516
*CONN
*P SUM[1] O
*I *249:X O *D sky130_fd_sc_hd__buf_2
*CAP
1 SUM[1] 0.000306258
2 *249:X 0.000306258
3 *243:A SUM[1] 0
*RES
1 *249:X SUM[1] 6.6087 
*END

*D_NET *19 0.000930259
*CONN
*P SUM[2] O
*I *250:X O *D sky130_fd_sc_hd__clkbuf_4
*CAP
1 SUM[2] 0.000438472
2 *250:X 0.000438472
3 SUM[2] SUM[6] 0
4 SUM[2] *248:A 5.33142e-05
5 SUM[0] SUM[2] 0
*RES
1 *250:X SUM[2] 7.96503 
*END

*D_NET *20 0.00175853
*CONN
*P SUM[3] O
*I *251:X O *D sky130_fd_sc_hd__clkbuf_4
*CAP
1 SUM[3] 0.000742257
2 *251:X 0.000742257
3 SUM[3] *53:16 0.00027402
4 *242:A SUM[3] 0
*RES
1 *251:X SUM[3] 16.035 
*END

*D_NET *21 0.00105075
*CONN
*P SUM[4] O
*I *252:X O *D sky130_fd_sc_hd__clkbuf_4
*CAP
1 SUM[4] 0.000501488
2 *252:X 0.000501488
3 SUM[4] *252:A 0
4 SUM[4] *56:14 4.77757e-05
*RES
1 *252:X SUM[4] 12.315 
*END

*D_NET *22 0.000477136
*CONN
*P SUM[5] O
*I *253:X O *D sky130_fd_sc_hd__clkbuf_4
*CAP
1 SUM[5] 0.000238568
2 *253:X 0.000238568
*RES
1 *253:X SUM[5] 6.64043 
*END

*D_NET *23 0.00226231
*CONN
*P SUM[6] O
*I *254:X O *D sky130_fd_sc_hd__buf_4
*CAP
1 SUM[6] 0.000944285
2 *254:X 0.000944285
3 SUM[2] SUM[6] 0
4 *241:A SUM[6] 0.000373743
*RES
1 *254:X SUM[6] 14.7808 
*END

*D_NET *24 0.000656054
*CONN
*P SUM[7] O
*I *255:X O *D sky130_fd_sc_hd__buf_2
*CAP
1 SUM[7] 0.000328027
2 *255:X 0.000328027
3 SUM[7] *55:18 0
*RES
1 *255:X SUM[7] 7.1187 
*END

*D_NET *27 0.00105549
*CONN
*I *202:B I *D sky130_fd_sc_hd__and3_1
*I *201:A1 I *D sky130_fd_sc_hd__a21oi_1
*I *199:X O *D sky130_fd_sc_hd__a21o_1
*CAP
1 *202:B 0.000165647
2 *201:A1 0.000246725
3 *199:X 0
4 *27:4 0.000412372
5 *201:A1 *199:A1 2.39856e-05
6 *201:A1 *199:B1 2.0187e-05
7 *201:A1 *201:A2 3.1562e-06
8 *201:A1 *203:A 1.08105e-05
9 *201:A1 *53:26 8.35118e-05
10 *202:B *202:C 1.34687e-05
11 *202:B *203:A 7.56213e-05
*RES
1 *199:X *27:4 1.6 
2 *27:4 *201:A1 4.465 
3 *27:4 *202:B 4.12 
*END

*D_NET *28 0.00163092
*CONN
*I *202:C I *D sky130_fd_sc_hd__and3_1
*I *201:A2 I *D sky130_fd_sc_hd__a21oi_1
*I *200:Y O *D sky130_fd_sc_hd__nand3_1
*CAP
1 *202:C 0.000249644
2 *201:A2 0.000240181
3 *200:Y 0
4 *28:4 0.000489825
5 *201:A2 *199:A1 3.69542e-05
6 *201:A2 *200:B 9.05535e-05
7 *201:A2 *203:A 8.23457e-05
8 *201:A2 *64:25 8.9257e-05
9 *202:C *200:C 1.79174e-05
10 *202:C *202:A 0.000187267
11 *202:C *222:A 4.80058e-05
12 *202:C *253:A 8.23457e-05
13 *201:A1 *201:A2 3.1562e-06
14 *202:B *202:C 1.34687e-05
*RES
1 *200:Y *28:4 1.6 
2 *28:4 *201:A2 9.425 
3 *28:4 *202:C 10.535 
*END

*D_NET *29 0.00117366
*CONN
*I *203:A I *D sky130_fd_sc_hd__nor2_1
*I *201:Y O *D sky130_fd_sc_hd__a21oi_1
*CAP
1 *203:A 0.000311642
2 *201:Y 0.000311642
3 *203:A *199:A1 8.35157e-05
4 *203:A *199:B1 4.24963e-05
5 *203:A *202:A 5.31158e-06
6 *203:A *203:B 1.08758e-05
7 *203:A *204:B 1.79174e-05
8 *203:A *204:C 3.07665e-05
9 *203:A *254:A 0.000132319
10 *203:A *31:10 4.88428e-05
11 *203:A *53:26 9.55262e-06
12 *201:A1 *203:A 1.08105e-05
13 *201:A2 *203:A 8.23457e-05
14 *202:B *203:A 7.56213e-05
*RES
1 *201:Y *203:A 13.71 
*END

*D_NET *30 0.00113556
*CONN
*I *205:C I *D sky130_fd_sc_hd__or3_1
*I *206:A2 I *D sky130_fd_sc_hd__o21ai_1
*I *203:B I *D sky130_fd_sc_hd__nor2_1
*I *202:X O *D sky130_fd_sc_hd__and3_1
*CAP
1 *205:C 8.03138e-05
2 *206:A2 0
3 *203:B 7.73531e-05
4 *202:X 6.20856e-05
5 *30:27 0.000235869
6 *30:8 0.000294994
7 *203:B *249:A 4.89395e-05
8 *205:C *205:A 4.89395e-05
9 *205:C *206:A1 6.24991e-05
10 *205:C *33:6 4.89395e-05
11 *205:C *70:12 8.53011e-05
12 *30:27 *206:A1 9.12494e-06
13 *30:27 *31:10 7.03276e-05
14 *203:A *203:B 1.08758e-05
*RES
1 *202:X *30:8 4.47 
2 *30:8 *203:B 5.115 
3 *30:8 *30:27 2.7 
4 *30:27 *206:A2 3.6 
5 *30:27 *205:C 5.61 
*END

*D_NET *31 0.000942813
*CONN
*I *206:A1 I *D sky130_fd_sc_hd__o21ai_1
*I *205:B I *D sky130_fd_sc_hd__or3_1
*I *204:X O *D sky130_fd_sc_hd__and3_1
*CAP
1 *206:A1 3.64343e-05
2 *205:B 0.000111279
3 *204:X 0.000134086
4 *31:10 0.000281799
5 *205:B *205:A 3.75203e-05
6 *205:B *70:12 0.000121036
7 *206:A1 *70:12 2.98644e-05
8 *203:A *31:10 4.88428e-05
9 *205:C *206:A1 6.24991e-05
10 *30:27 *206:A1 9.12494e-06
11 *30:27 *31:10 7.03276e-05
*RES
1 *204:X *31:10 5.61 
2 *31:10 *205:B 5.805 
3 *31:10 *206:A1 4.47 
*END

*D_NET *32 0.000917274
*CONN
*I *209:A2 I *D sky130_fd_sc_hd__a21bo_1
*I *207:A I *D sky130_fd_sc_hd__and2_1
*I *205:X O *D sky130_fd_sc_hd__or3_1
*CAP
1 *209:A2 0.000199323
2 *207:A 0
3 *205:X 8.84076e-05
4 *32:8 0.00028773
5 *209:A2 *207:B 9.13949e-06
6 *209:A2 *208:B 4.39011e-05
7 *209:A2 *209:A1 4.77757e-05
8 *209:A2 *209:B1_N 0.000101747
9 *209:A2 *33:6 4.60123e-05
10 *32:8 *33:6 9.32375e-05
*RES
1 *205:X *32:8 3.445 
2 *32:8 *207:A 1.6 
3 *32:8 *209:A2 5.62 
*END

*D_NET *33 0.000933939
*CONN
*I *209:B1_N I *D sky130_fd_sc_hd__a21bo_1
*I *207:B I *D sky130_fd_sc_hd__and2_1
*I *206:Y O *D sky130_fd_sc_hd__o21ai_1
*CAP
1 *209:B1_N 5.73e-05
2 *207:B 1.8855e-05
3 *206:Y 0.000230223
4 *33:6 0.000306378
5 *33:6 *205:A 2.21074e-05
6 *205:C *33:6 4.89395e-05
7 *209:A2 *207:B 9.13949e-06
8 *209:A2 *209:B1_N 0.000101747
9 *209:A2 *33:6 4.60123e-05
10 *32:8 *33:6 9.32375e-05
*RES
1 *206:Y *33:6 5.5 
2 *33:6 *207:B 1.96 
3 *33:6 *209:B1_N 2.74 
*END

*D_NET *34 0.000530122
*CONN
*I *208:B I *D sky130_fd_sc_hd__xor2_1
*I *207:X O *D sky130_fd_sc_hd__and2_1
*CAP
1 *208:B 0.000128467
2 *207:X 0.000128467
3 *208:B *209:A1 0.000114643
4 *208:B *58:12 0.000114643
5 *209:A2 *208:B 4.39011e-05
*RES
1 *207:X *208:B 9.72 
*END

*D_NET *35 0.00114022
*CONN
*I *212:B I *D sky130_fd_sc_hd__and2_1
*I *210:B I *D sky130_fd_sc_hd__xor2_1
*I *209:X O *D sky130_fd_sc_hd__a21bo_1
*CAP
1 *212:B 0.000202317
2 *210:B 0
3 *209:X 0.000145508
4 *35:6 0.000347825
5 *212:B *210:A 0.000118081
6 *212:B *211:A 1.91597e-05
7 *212:B *211:B 1.08758e-05
8 *212:B *212:A 0.000156468
9 *212:B *213:A2 7.81582e-05
10 *212:B *38:14 1.28996e-05
11 *212:B *55:18 4.89295e-05
*RES
1 *209:X *35:6 3.775 
2 *35:6 *210:B 1.6 
3 *35:6 *212:B 10.025 
*END

*D_NET *36 0.00103105
*CONN
*I *211:B I *D sky130_fd_sc_hd__xor2_1
*I *213:A2 I *D sky130_fd_sc_hd__a21oi_2
*I *210:X O *D sky130_fd_sc_hd__xor2_1
*CAP
1 *211:B 9.46613e-05
2 *213:A2 0.000254035
3 *210:X 0
4 *36:4 0.000348696
5 *211:B *211:A 4.4587e-05
6 *213:A2 *213:A1 0.000128611
7 *213:A2 *56:14 7.14241e-05
8 *212:B *211:B 1.08758e-05
9 *212:B *213:A2 7.81582e-05
*RES
1 *210:X *36:4 1.6 
2 *36:4 *213:A2 9.845 
3 *36:4 *211:B 3.46 
*END

*D_NET *37 0.000889919
*CONN
*I *213:B1 I *D sky130_fd_sc_hd__a21oi_2
*I *212:X O *D sky130_fd_sc_hd__and2_1
*CAP
1 *213:B1 0.000248112
2 *212:X 0.000248112
3 *213:B1 *53:16 4.88478e-05
4 *213:B1 *55:18 1.52418e-05
5 *213:B1 *71:10 4.78564e-05
6 *213:B1 *74:16 0.00028175
*RES
1 *212:X *213:B1 11.865 
*END

*D_NET *38 0.0050775
*CONN
*I *216:A_N I *D sky130_fd_sc_hd__and2b_1
*I *214:B I *D sky130_fd_sc_hd__xnor2_1
*I *213:Y O *D sky130_fd_sc_hd__a21oi_2
*CAP
1 *216:A_N 0
2 *214:B 3.04398e-05
3 *213:Y 0.000969075
4 *38:14 0.000999515
5 *214:B *214:A 8.8266e-05
6 *38:14 *212:A 0.000177142
7 *38:14 *213:A1 9.23635e-05
8 *38:14 *214:A 0.000153217
9 *38:14 *226:A 3.70572e-05
10 *38:14 *229:B1 0.000221782
11 *38:14 *56:14 0.00105026
12 *38:14 *71:10 0.000104264
13 *38:14 *72:14 0.00114122
14 *212:B *38:14 1.28996e-05
*RES
1 *213:Y *38:14 31.415 
2 *38:14 *214:B 2.395 
3 *38:14 *216:A_N 1.6 
*END

*D_NET *39 0.000510348
*CONN
*I *217:A2 I *D sky130_fd_sc_hd__a21oi_2
*I *215:B I *D sky130_fd_sc_hd__xor2_1
*I *214:Y O *D sky130_fd_sc_hd__xnor2_1
*CAP
1 *217:A2 7.08031e-05
2 *215:B 2.08101e-05
3 *214:Y 6.96866e-05
4 *39:12 0.0001613
5 *217:A2 *217:A1 9.91257e-05
6 *217:A2 *252:A 4.99619e-05
7 *39:12 *64:10 3.86607e-05
*RES
1 *214:Y *39:12 6.83 
2 *39:12 *215:B 1.96 
3 *39:12 *217:A2 3.445 
*END

*D_NET *40 0.000281962
*CONN
*I *217:B1 I *D sky130_fd_sc_hd__a21oi_2
*I *216:X O *D sky130_fd_sc_hd__and2b_1
*CAP
1 *217:B1 0.00010427
2 *216:X 0.00010427
3 *217:B1 *252:A 2.34602e-05
4 *217:B1 *41:8 4.99619e-05
5 *217:B1 *42:10 0
*RES
1 *216:X *217:B1 9.135 
*END

*D_NET *41 0.00115976
*CONN
*I *223:A I *D sky130_fd_sc_hd__or2b_1
*I *218:B I *D sky130_fd_sc_hd__xnor2_1
*I *217:Y O *D sky130_fd_sc_hd__a21oi_2
*CAP
1 *223:A 0.000175315
2 *218:B 0
3 *217:Y 0.00014332
4 *41:8 0.000318635
5 *223:A *218:A 5.03424e-05
6 *223:A *252:A 8.12896e-06
7 *223:A *73:20 1.9872e-05
8 *41:8 *252:A 0.000394183
9 *217:B1 *41:8 4.99619e-05
*RES
1 *217:Y *41:8 5.515 
2 *41:8 *218:B 1.6 
3 *41:8 *223:A 4.045 
*END

*D_NET *42 0.00123916
*CONN
*I *219:B I *D sky130_fd_sc_hd__or2_1
*I *220:A I *D sky130_fd_sc_hd__nand2_1
*I *218:Y O *D sky130_fd_sc_hd__xnor2_1
*CAP
1 *219:B 0.000168693
2 *220:A 7.79889e-05
3 *218:Y 0.000209112
4 *42:10 0.000455794
5 *219:B *219:A 4.89295e-05
6 *219:B *221:A 4.89295e-05
7 *219:B *221:B 0
8 *219:B *228:A2 0
9 *219:B *44:6 2.75229e-05
10 *219:B *44:15 9.76449e-05
11 *220:A *220:B 5.80232e-06
12 *220:A *221:B 4.29151e-06
13 *220:A *44:6 9.4455e-05
14 *217:B1 *42:10 0
*RES
1 *218:Y *42:10 8.765 
2 *42:10 *220:A 3.325 
3 *42:10 *219:B 4.825 
*END

*D_NET *43 0.000111732
*CONN
*I *221:A I *D sky130_fd_sc_hd__and2_1
*I *219:X O *D sky130_fd_sc_hd__or2_1
*CAP
1 *221:A 6.93648e-06
2 *219:X 6.93648e-06
3 *221:A *44:15 4.89295e-05
4 *219:B *221:A 4.89295e-05
*RES
1 *219:X *221:A 3.65 
*END

*D_NET *44 0.00296074
*CONN
*I *225:A2 I *D sky130_fd_sc_hd__a21bo_1
*I *224:C I *D sky130_fd_sc_hd__nand3b_1
*I *228:A2 I *D sky130_fd_sc_hd__a21boi_1
*I *221:B I *D sky130_fd_sc_hd__and2_1
*I *220:Y O *D sky130_fd_sc_hd__nand2_1
*CAP
1 *225:A2 2.5005e-05
2 *224:C 0.000396399
3 *228:A2 1.57107e-05
4 *221:B 1.89762e-05
5 *220:Y 4.15999e-05
6 *44:24 0.000488369
7 *44:15 0.000278235
8 *44:6 0.000256135
9 *221:B *220:B 0
10 *224:C *224:A_N 1.99427e-05
11 *224:C *224:B 1.926e-05
12 *224:C *228:B1_N 0.000213963
13 *224:C *74:18 2.14005e-05
14 *225:A2 *228:B1_N 0.000121407
15 *225:A2 *46:23 0.00016031
16 *44:6 *220:B 0.000203178
17 *44:15 *219:A 4.77719e-05
18 *44:15 *220:B 0.000235851
19 *44:24 *46:23 0.000124384
20 *219:B *221:B 0
21 *219:B *228:A2 0
22 *219:B *44:6 2.75229e-05
23 *219:B *44:15 9.76449e-05
24 *220:A *221:B 4.29151e-06
25 *220:A *44:6 9.4455e-05
26 *221:A *44:15 4.89295e-05
*RES
1 *220:Y *44:6 3.43 
2 *44:6 *221:B 1.96 
3 *44:6 *44:15 4.59 
4 *44:15 *228:A2 1.96 
5 *44:15 *44:24 1.485 
6 *44:24 *224:C 7.54 
7 *44:24 *225:A2 3.085 
*END

*D_NET *45 0.00110825
*CONN
*I *222:A I *D sky130_fd_sc_hd__clkbuf_1
*I *221:X O *D sky130_fd_sc_hd__and2_1
*CAP
1 *222:A 0.000516662
2 *221:X 0.000516662
3 *222:A *202:A 2.69153e-05
4 *202:C *222:A 4.80058e-05
*RES
1 *221:X *222:A 15.555 
*END

*D_NET *46 0.00220452
*CONN
*I *224:B I *D sky130_fd_sc_hd__nand3b_1
*I *225:A1 I *D sky130_fd_sc_hd__a21bo_1
*I *228:A1 I *D sky130_fd_sc_hd__a21boi_1
*I *223:X O *D sky130_fd_sc_hd__or2b_1
*CAP
1 *224:B 0.000198789
2 *225:A1 2.0835e-05
3 *228:A1 0
4 *223:X 0.000306163
5 *46:23 0.000377184
6 *46:10 0.000463724
7 *224:B *224:A_N 2.49909e-05
8 *224:B *228:B1_N 8.41839e-05
9 *224:B *229:B1 4.66108e-05
10 *224:B *47:14 3.64998e-06
11 *224:B *74:18 2.68464e-05
12 *46:10 *230:B 9.47017e-05
13 *46:23 *228:B1_N 1.8811e-05
14 *46:23 *229:B1 0.000234073
15 *46:23 *58:12 0
16 *224:C *224:B 1.926e-05
17 *225:A2 *46:23 0.00016031
18 *44:24 *46:23 0.000124384
*RES
1 *223:X *46:10 7.995 
2 *46:10 *228:A1 3.6 
3 *46:10 *46:23 5.99 
4 *46:23 *225:A1 1.96 
5 *46:23 *224:B 5.29 
*END

*D_NET *47 0.0012236
*CONN
*I *229:A2 I *D sky130_fd_sc_hd__a21oi_1
*I *226:A I *D sky130_fd_sc_hd__nand2_1
*I *224:Y O *D sky130_fd_sc_hd__nand3b_1
*CAP
1 *229:A2 3.06027e-05
2 *226:A 9.49442e-05
3 *224:Y 0.000119675
4 *47:14 0.000245222
5 *226:A *226:B 1.75875e-05
6 *226:A *227:B 0.000305554
7 *226:A *229:B1 0.000122801
8 *226:A *72:14 4.90954e-05
9 *229:A2 *72:14 2.75145e-05
10 *47:14 *227:B 7.06865e-05
11 *47:14 *255:A 9.92059e-05
12 *224:B *47:14 3.64998e-06
13 *38:14 *226:A 3.70572e-05
*RES
1 *224:Y *47:14 7.625 
2 *47:14 *226:A 5.17 
3 *47:14 *229:A2 2.41 
*END

*D_NET *48 0.000220843
*CONN
*I *226:B I *D sky130_fd_sc_hd__nand2_1
*I *225:X O *D sky130_fd_sc_hd__a21bo_1
*CAP
1 *226:B 8.26603e-05
2 *225:X 8.26603e-05
3 *226:B *56:14 3.79351e-05
4 *226:A *226:B 1.75875e-05
*RES
1 *225:X *226:B 8.685 
*END

*D_NET *49 0.00145542
*CONN
*I *227:B I *D sky130_fd_sc_hd__xnor2_1
*I *226:Y O *D sky130_fd_sc_hd__nand2_1
*CAP
1 *227:B 0.000385977
2 *226:Y 0.000385977
3 *227:B *227:A 0.000281126
4 *227:B *255:A 2.60986e-05
5 *227:B *72:14 0
6 *226:A *227:B 0.000305554
7 *47:14 *227:B 7.06865e-05
*RES
1 *226:Y *227:B 13.485 
*END

*D_NET *50 0.0013814
*CONN
*I *229:B1 I *D sky130_fd_sc_hd__a21oi_1
*I *228:Y O *D sky130_fd_sc_hd__a21boi_1
*CAP
1 *229:B1 0.000341715
2 *228:Y 0.000341715
3 *229:B1 *72:14 7.27003e-05
4 *224:B *229:B1 4.66108e-05
5 *226:A *229:B1 0.000122801
6 *38:14 *229:B1 0.000221782
7 *46:23 *229:B1 0.000234073
*RES
1 *228:Y *229:B1 13.515 
*END

*D_NET *51 0.000237213
*CONN
*I *231:A I *D sky130_fd_sc_hd__xnor2_1
*I *229:Y O *D sky130_fd_sc_hd__a21oi_1
*CAP
1 *231:A 9.96389e-05
2 *229:Y 9.96389e-05
3 *231:A *56:14 0
4 *231:A *59:14 3.79351e-05
*RES
1 *229:Y *231:A 8.94 
*END

*D_NET *52 0.000123734
*CONN
*I *231:B I *D sky130_fd_sc_hd__xnor2_1
*I *230:X O *D sky130_fd_sc_hd__xor2_1
*CAP
1 *231:B 3.65173e-05
2 *230:X 3.65173e-05
3 *231:B *73:20 5.06989e-05
*RES
1 *230:X *231:B 3.995 
*END

*D_NET *53 0.00550623
*CONN
*I *198:B I *D sky130_fd_sc_hd__xor2_1
*I *204:B I *D sky130_fd_sc_hd__and3_1
*I *199:A2 I *D sky130_fd_sc_hd__a21o_1
*I *200:B I *D sky130_fd_sc_hd__nand3_1
*I *232:X O *D sky130_fd_sc_hd__dlymetal6s2s_1
*CAP
1 *198:B 0
2 *204:B 0.000102507
3 *199:A2 0
4 *200:B 7.18235e-05
5 *232:X 0.0013784
6 *53:26 0.00017851
7 *53:18 0.000244585
8 *53:16 0.00141379
9 *200:B *201:B1 0.000216978
10 *200:B *204:C 3.99802e-05
11 *200:B *64:10 9.12494e-06
12 *200:B *64:25 4.9332e-05
13 *204:B *204:A 1.1392e-05
14 *204:B *204:C 2.19562e-06
15 *53:16 *198:A 2.21606e-05
16 *53:16 *213:A1 2.69217e-05
17 *53:16 *250:A 0.000317828
18 *53:16 *254:A 0.000124858
19 *53:16 *71:10 4.69864e-05
20 *53:18 *198:A 0.00010682
21 *53:18 *254:A 6.30072e-05
22 *53:26 *198:A 9.63461e-05
23 *53:26 *199:A1 3.93077e-05
24 *53:26 *199:B1 1.14192e-05
25 *53:26 *204:C 8.43398e-05
26 *53:26 *254:A 0.000186166
27 SUM[3] *53:16 0.00027402
28 *201:A1 *53:26 8.35118e-05
29 *201:A2 *200:B 9.05535e-05
30 *203:A *204:B 1.79174e-05
31 *203:A *53:26 9.55262e-06
32 *213:B1 *53:16 4.88478e-05
33 *242:A *53:16 0.000137037
*RES
1 *232:X *53:16 31.315 
2 *53:16 *53:18 1.38 
3 *53:18 *53:26 5.555 
4 *53:26 *200:B 8.255 
5 *53:26 *199:A2 1.6 
6 *53:18 *204:B 4.74 
7 *53:16 *198:B 3.6 
*END

*D_NET *54 0.00323835
*CONN
*I *201:B1 I *D sky130_fd_sc_hd__a21oi_1
*I *202:A I *D sky130_fd_sc_hd__and3_1
*I *233:X O *D sky130_fd_sc_hd__clkbuf_1
*CAP
1 *201:B1 8.10717e-05
2 *202:A 0.00036221
3 *233:X 0.000588931
4 *54:10 0.00103221
5 *201:B1 *64:10 1.11025e-05
6 *201:B1 *76:18 0.000197255
7 *201:B1 *76:37 9.12494e-06
8 *202:A *200:A 5.83121e-06
9 *202:A *200:C 4.77807e-05
10 *202:A *253:A 6.60811e-06
11 *202:A *254:A 9.20509e-05
12 *54:10 *57:12 0
13 *54:10 *64:10 0.000337658
14 *200:B *201:B1 0.000216978
15 *202:C *202:A 0.000187267
16 *203:A *202:A 5.31158e-06
17 *222:A *202:A 2.69153e-05
18 *235:A *54:10 3.00381e-05
*RES
1 *233:X *54:10 15.12 
2 *54:10 *202:A 13.285 
3 *54:10 *201:B1 6.51 
*END

*D_NET *55 0.00483911
*CONN
*I *208:A I *D sky130_fd_sc_hd__xor2_1
*I *209:A1 I *D sky130_fd_sc_hd__a21bo_1
*I *234:X O *D sky130_fd_sc_hd__buf_1
*CAP
1 *208:A 0
2 *209:A1 0.000118943
3 *234:X 0.00127216
4 *55:18 0.00139111
5 *209:A1 *58:12 3.79321e-05
6 *55:18 *249:A 0.00105612
7 *55:18 *255:A 0
8 *55:18 *72:14 0.000684882
9 *55:18 *73:20 0
10 SUM[7] *55:18 0
11 *208:B *209:A1 0.000114643
12 *209:A2 *209:A1 4.77757e-05
13 *212:B *55:18 4.89295e-05
14 *213:B1 *55:18 1.52418e-05
15 *244:A *55:18 5.13692e-05
*RES
1 *234:X *55:18 32.195 
2 *55:18 *209:A1 8.195 
3 *55:18 *208:A 1.6 
*END

*D_NET *56 0.00660209
*CONN
*I *213:A1 I *D sky130_fd_sc_hd__a21oi_2
*I *211:A I *D sky130_fd_sc_hd__xor2_1
*I *235:X O *D sky130_fd_sc_hd__buf_1
*CAP
1 *213:A1 7.30675e-05
2 *211:A 0.000182971
3 *235:X 0.00177662
4 *56:14 0.00203266
5 *211:A *210:A 8.23457e-05
6 *56:14 *230:A 0.000294414
7 *56:14 *230:B 0.000502301
8 *56:14 *252:A 0.00013868
9 *56:14 *59:14 0
10 SUM[4] *56:14 4.77757e-05
11 *211:B *211:A 4.4587e-05
12 *212:B *211:A 1.91597e-05
13 *213:A2 *213:A1 0.000128611
14 *213:A2 *56:14 7.14241e-05
15 *226:B *56:14 3.79351e-05
16 *231:A *56:14 0
17 *38:14 *213:A1 9.23635e-05
18 *38:14 *56:14 0.00105026
19 *53:16 *213:A1 2.69217e-05
*RES
1 *235:X *56:14 36.525 
2 *56:14 *211:A 6.48 
3 *56:14 *213:A1 5.685 
*END

*D_NET *57 0.00114993
*CONN
*I *217:A1 I *D sky130_fd_sc_hd__a21oi_2
*I *215:A I *D sky130_fd_sc_hd__xor2_1
*I *236:X O *D sky130_fd_sc_hd__buf_1
*CAP
1 *217:A1 0.000115467
2 *215:A 0
3 *236:X 0.00034619
4 *57:12 0.000461657
5 *217:A1 *252:A 3.23663e-05
6 *57:12 *64:10 9.51192e-05
7 *217:A2 *217:A1 9.91257e-05
8 *54:10 *57:12 0
*RES
1 *236:X *57:12 11.54 
2 *57:12 *215:A 1.6 
3 *57:12 *217:A1 4.12 
*END

*D_NET *58 0.00328313
*CONN
*I *220:B I *D sky130_fd_sc_hd__nand2_1
*I *219:A I *D sky130_fd_sc_hd__or2_1
*I *237:X O *D sky130_fd_sc_hd__buf_1
*CAP
1 *220:B 0.000266478
2 *219:A 4.40879e-05
3 *237:X 0.000983943
4 *58:12 0.00129451
5 *208:B *58:12 0.000114643
6 *209:A1 *58:12 3.79321e-05
7 *219:B *219:A 4.89295e-05
8 *220:A *220:B 5.80232e-06
9 *221:B *220:B 0
10 *44:6 *220:B 0.000203178
11 *44:15 *219:A 4.77719e-05
12 *44:15 *220:B 0.000235851
13 *46:23 *58:12 0
*RES
1 *237:X *58:12 19.6275 
2 *58:12 *219:A 4.5375 
3 *58:12 *220:B 8.6925 
*END

*D_NET *59 0.00244598
*CONN
*I *227:A I *D sky130_fd_sc_hd__xnor2_1
*I *229:A1 I *D sky130_fd_sc_hd__a21oi_1
*I *238:X O *D sky130_fd_sc_hd__buf_1
*CAP
1 *227:A 0.000221131
2 *229:A1 0
3 *238:X 0.000481955
4 *59:14 0.000703085
5 *227:A *255:A 1.42155e-05
6 *227:A *74:16 0.000200539
7 *59:14 *230:A 5.83121e-06
8 *59:14 *255:A 6.73928e-05
9 *59:14 *73:20 0.000329811
10 *227:B *227:A 0.000281126
11 *231:A *59:14 3.79351e-05
12 *238:A *59:14 4.93031e-05
13 *244:A *59:14 5.36544e-05
14 *56:14 *59:14 0
*RES
1 *238:X *59:14 12.81 
2 *59:14 *229:A1 3.6 
3 *59:14 *227:A 8.58 
*END

*D_NET *60 0.00240943
*CONN
*I *230:B I *D sky130_fd_sc_hd__xor2_1
*I *239:X O *D sky130_fd_sc_hd__clkbuf_1
*CAP
1 *230:B 0.000632882
2 *239:X 0.000632882
3 *230:B *252:A 0.000252282
4 *230:B *73:20 0.00029438
5 *46:10 *230:B 9.47017e-05
6 *56:14 *230:B 0.000502301
*RES
1 *239:X *230:B 19.02 
*END

*D_NET *61 0.000537138
*CONN
*I *248:A I *D sky130_fd_sc_hd__clkbuf_4
*I *198:X O *D sky130_fd_sc_hd__xor2_1
*CAP
1 *248:A 0.000241912
2 *198:X 0.000241912
3 SUM[2] *248:A 5.33142e-05
*RES
1 *198:X *248:A 11.64 
*END

*D_NET *62 0.00429309
*CONN
*I *249:A I *D sky130_fd_sc_hd__buf_2
*I *203:Y O *D sky130_fd_sc_hd__nor2_1
*CAP
1 *249:A 0.00158473
2 *203:Y 0.00158473
3 *249:A *250:A 1.85613e-05
4 *203:B *249:A 4.89395e-05
5 *55:18 *249:A 0.00105612
*RES
1 *203:Y *249:A 28.32 
*END

*D_NET *63 0.00219994
*CONN
*I *250:A I *D sky130_fd_sc_hd__clkbuf_4
*I *208:X O *D sky130_fd_sc_hd__xor2_1
*CAP
1 *250:A 0.000931775
2 *208:X 0.000931775
3 *249:A *250:A 1.85613e-05
4 *53:16 *250:A 0.000317828
*RES
1 *208:X *250:A 21.48 
*END

*D_NET *64 0.00316176
*CONN
*I *199:B1 I *D sky130_fd_sc_hd__a21o_1
*I *204:C I *D sky130_fd_sc_hd__and3_1
*I *200:C I *D sky130_fd_sc_hd__nand3_1
*I *240:X O *D sky130_fd_sc_hd__buf_1
*CAP
1 *199:B1 2.865e-05
2 *204:C 0.000294588
3 *200:C 1.33309e-05
4 *240:X 0.000460279
5 *64:25 0.000414579
6 *64:10 0.00056495
7 *199:B1 *199:A1 3.11259e-05
8 *199:B1 *254:A 1.97486e-05
9 *204:C *204:A 7.14699e-05
10 *204:C *254:A 1.89469e-05
11 *204:C *76:37 8.78965e-05
12 *64:10 *254:A 4.75977e-05
13 *64:25 *254:A 0.000181257
14 *200:B *204:C 3.99802e-05
15 *200:B *64:10 9.12494e-06
16 *200:B *64:25 4.9332e-05
17 *201:A1 *199:B1 2.0187e-05
18 *201:A2 *64:25 8.9257e-05
19 *201:B1 *64:10 1.11025e-05
20 *202:A *200:C 4.77807e-05
21 *202:C *200:C 1.79174e-05
22 *203:A *199:B1 4.24963e-05
23 *203:A *204:C 3.07665e-05
24 *204:B *204:C 2.19562e-06
25 *39:12 *64:10 3.86607e-05
26 *53:26 *199:B1 1.14192e-05
27 *53:26 *204:C 8.43398e-05
28 *54:10 *64:10 0.000337658
29 *57:12 *64:10 9.51192e-05
*RES
1 *240:X *64:10 13.02 
2 *64:10 *200:C 4.05 
3 *64:10 *64:25 2.8275 
4 *64:25 *204:C 8.2575 
5 *64:25 *199:B1 4.6425 
*END

*D_NET *65 0.000365324
*CONN
*I *251:A I *D sky130_fd_sc_hd__clkbuf_4
*I *211:X O *D sky130_fd_sc_hd__xor2_1
*CAP
1 *251:A 0.000157995
2 *211:X 0.000157995
3 *251:A *74:16 4.93336e-05
*RES
1 *211:X *251:A 9.645 
*END

*D_NET *66 0.00281773
*CONN
*I *252:A I *D sky130_fd_sc_hd__clkbuf_4
*I *215:X O *D sky130_fd_sc_hd__xor2_1
*CAP
1 *252:A 0.000859585
2 *215:X 0.000859585
3 *252:A *218:A 0.000123955
4 *252:A *73:20 7.55432e-05
5 SUM[4] *252:A 0
6 *217:A1 *252:A 3.23663e-05
7 *217:A2 *252:A 4.99619e-05
8 *217:B1 *252:A 2.34602e-05
9 *223:A *252:A 8.12896e-06
10 *230:B *252:A 0.000252282
11 *41:8 *252:A 0.000394183
12 *56:14 *252:A 0.00013868
*RES
1 *215:X *252:A 23.025 
*END

*D_NET *67 0.00111105
*CONN
*I *253:A I *D sky130_fd_sc_hd__clkbuf_4
*I *222:X O *D sky130_fd_sc_hd__clkbuf_1
*CAP
1 *253:A 0.000363306
2 *222:X 0.000363306
3 *253:A *200:A 1.56428e-05
4 *253:A *76:14 1.79098e-05
5 *253:A *76:18 0.00013488
6 *253:A *76:37 0.000127052
7 *202:A *253:A 6.60811e-06
8 *202:C *253:A 8.23457e-05
*RES
1 *222:X *253:A 12.54 
*END

*D_NET *68 0.0048596
*CONN
*I *254:A I *D sky130_fd_sc_hd__buf_4
*I *227:Y O *D sky130_fd_sc_hd__xnor2_1
*CAP
1 *254:A 0.00199683
2 *227:Y 0.00199683
3 *199:B1 *254:A 1.97486e-05
4 *202:A *254:A 9.20509e-05
5 *203:A *254:A 0.000132319
6 *204:C *254:A 1.89469e-05
7 *53:16 *254:A 0.000124858
8 *53:18 *254:A 6.30072e-05
9 *53:26 *254:A 0.000186166
10 *64:10 *254:A 4.75977e-05
11 *64:25 *254:A 0.000181257
*RES
1 *227:Y *254:A 34.875 
*END

*D_NET *69 0.00103322
*CONN
*I *255:A I *D sky130_fd_sc_hd__buf_2
*I *231:Y O *D sky130_fd_sc_hd__xnor2_1
*CAP
1 *255:A 0.000411126
2 *231:Y 0.000411126
3 *255:A *73:20 4.05674e-06
4 *227:A *255:A 1.42155e-05
5 *227:B *255:A 2.60986e-05
6 *47:14 *255:A 9.92059e-05
7 *55:18 *255:A 0
8 *59:14 *255:A 6.73928e-05
*RES
1 *231:Y *255:A 13.8 
*END

*D_NET *70 0.000951121
*CONN
*I *205:A I *D sky130_fd_sc_hd__or3_1
*I *206:B1 I *D sky130_fd_sc_hd__o21ai_1
*I *241:X O *D sky130_fd_sc_hd__clkbuf_1
*CAP
1 *205:A 2.05579e-05
2 *206:B1 0
3 *241:X 0.000282618
4 *70:12 0.000303176
5 *205:B *205:A 3.75203e-05
6 *205:B *70:12 0.000121036
7 *205:C *205:A 4.89395e-05
8 *205:C *70:12 8.53011e-05
9 *206:A1 *70:12 2.98644e-05
10 *33:6 *205:A 2.21074e-05
*RES
1 *241:X *70:12 10.76 
2 *70:12 *206:B1 1.6 
3 *70:12 *205:A 2.395 
*END

*D_NET *71 0.00180611
*CONN
*I *210:A I *D sky130_fd_sc_hd__xor2_1
*I *212:A I *D sky130_fd_sc_hd__and2_1
*I *242:X O *D sky130_fd_sc_hd__buf_1
*CAP
1 *210:A 4.41496e-05
2 *212:A 5.93175e-05
3 *242:X 0.000387045
4 *71:10 0.000490512
5 *211:A *210:A 8.23457e-05
6 *212:B *210:A 0.000118081
7 *212:B *212:A 0.000156468